LIST  10  seawater.lst
DIS   11  ..\data\SEAWATER\seawater.dis
BAS6  12  ..\data\SEAWATER\seawater.ba6
BCF6  13  ..\data\SEAWATER\seawater.bc6
WEL   14  ..\data\SEAWATER\seawater.wel
RCH   15  ..\data\SEAWATER\seawater.rch
PCG   16  ..\data\SEAWATER\seawater.pcg
PVAL  17  ..\data\SEAWATER\seawater.pval
GWM   18  ..\data\SEAWATER\seawater.gwm
DATA  20  ..\data\SEAWATER\seawater.gwmw
