#SEAWATER-LGR Sample Problem, DECVAR Child file
#December, 2007
 1 0                        #1-IPRN  GWMWFILE
 2 0 2                      #2-NFVAR  NEVAR  NBVAR
 W1  2 0 0 0  W  Y  1    #3a-FVNAME NC LAY ROW COL FTYPE FSTAT WSP
     0.500  1   8 14   
     0.500  2   8 14   
 W2  2 0 0 0  W  Y  1
     0.500  1  17  5  
     0.500  2  17  5  
 BV1  1  W1                 #BVNAME  NDV  BVLIST
 BV2  1  W2
