#SEAWATER-LGR Sample Problem, DECVAR Parent file
 1 0                        #1-IPRN  GWMWFILE
 2 1 2                      #2-NFVAR  NEVAR  NBVAR
 W3  2 0 0 0 W  Y  1    #3a-FVNAME NC LAY ROW COL FTYPE FSTAT WSP
     0.500 1 17 20
     0.500 2 17 20
 W4  2 0 0 0 W  Y  1
     0.500 1  3 19
     0.500 2  3 19
 E  IM  1                   #EVNAME  ETYPE  ESP
 BV3  1  W3                 #BVNAME  NDV  BVLIST
 BV4  1  W4
