#SEAWATER-LGR Sample Problem, HEDCON Parent file
 1                              #1-IPRN
 0  0  6  4                    #2-NHB NDD NDF NGD
 hd-01 1 1 27  2 1 27 0.005 1    #5-HDIFNAME LAY1 ROW1 COL1 LAY2 ROW2 COL2 HD NSP
 hd-02 1 3 27  2 3 27 0.005 1
 hd-03 1 5 27  2 5 27 0.005 1
 hd-08 1 15 27  2 15 27 0.005 1
 hd-09 1 17 27  2 17 27 0.005 1
 hd-10 1 19 27  2 19 27 0.005 1
 gd-1 1 3 26 1 3 28 400. 0.007 1 #6-GRADNAME (L,R,C)1 (L,R,C)2 LEN GRAD NSP 
 gd-2 2 3 26 2 3 28 400. 0.007 1
 gd-7 1 17 26 1 17 28 400. 0.007 1
 gd-8 2 17 26 2 17 28 400. 0.007 1
