#SEAWATER-LGR Sample Problem, BAS6 child file
#December, 2007
FREE
INTERNAL          1 (20I4)    -2  IBOUND layer   1
 -59 -59 -59 -59 -59 -59 -59 -59 -59 -59 -59 -59 -59 -59 -59 -59 -59 -59 -59 -59
 -59 -59 -59 -59 -59 -59 -59 -59 -59 -59 -59 -59 -59 -59 -59 -59 -59 -59 -59 -59
 -59   1   1   1   1   1   1   1   1   1   1   1   1   1   1   1   1   1   1   1
   1   1   1   1   1   1   1   1   1   1   1   1   1   1   1   1   1   1   1 -59
 -59   1   1   1   1   1   1   1   1   1   1   1   1   1   1   1   1   1   1   1
   1   1   1   1   1   1   1   1   1   1   1   1   1   1   1   1   1   1   1 -59
 -59   1   1   1   1   1   1   1   1   1   1   1   1   1   1   1   1   1   1   1
   1   1   1   1   1   1   1   1   1   1   1   1   1   1   1   1   1   1   1 -59
 -59   1   1   1   1   1   1   1   1   1   1   1   1   1   1   1   1   1   1   1
   1   1   1   1   1   1   1   1   1   1   1   1   1   1   1   1   1   1   1 -59
 -59   1   1   1   1   1   1   1   1   1   1   1   1   1   1   1   1   1   1   1
   1   1   1   1   1   1   1   1   1   1   1   1   1   1   1   1   1   1   1 -59
 -59   1   1   1   1   1   1   1   1   1   1   1   1   1   1   1   1   1   1   1
   1   1   1   1   1   1   1   1   1   1   1   1   1   1   1   1   1   1   1 -59
 -59   1   1   1   1   1   1   1   1   1   1   1   1   1   1   1   1   1   1   1
   1   1   1   1   1   1   1   1   1   1   1   1   1   1   1   1   1   1   1 -59
 -59   1   1   1   1   1   1   1   1   1   1   1   1   1   1   1   1   1   1   1
   1   1   1   1   1   1   1   1   1   1   1   1   1   1   1   1   1   1   1 -59
 -59   1   1   1   1   1   1   1   1   1   1   1   1   1   1   1   1   1   1   1
   1   1   1   1   1   1   1   1   1   1   1   1   1   1   1   1   1   1   1 -59
 -59   1   1   1   1   1   1   1   1   1   1   1   1   1   1   1   1   1   1   1
   1   1   1   1   1   1   1   1   1   1   1   1   1   1   1   1   1   1   1 -59
 -59   1   1   1   1   1   1   1   1   1   1   1   1   1   1   1   1   1   1   1
   1   1   1   1   1   1   1   1   1   1   1   1   1   1   1   1   1   1   1 -59
 -59   1   1   1   1   1   1   1   1   1   1   1   1   1   1   1   1   1   1   1
   1   1   1   1   1   1   1   1   1   1   1   1   1   1   1   1   1   1   1 -59
 -59   1   1   1   1   1   1   1   1   1   1   1   1   1   1   1   1   1   1   1
   1   1   1   1   1   1   1   1   1   1   1   1   1   1   1   1   1   1   1 -59
 -59   1   1   1   1   1   1   1   1   1   1   1   1   1   1   1   1   1   1   1
   1   1   1   1   1   1   1   1   1   1   1   1   1   1   1   1   1   1   1 -59
 -59   1   1   1   1   1   1   1   1   1   1   1   1   1   1   1   1   1   1   1
   1   1   1   1   1   1   1   1   1   1   1   1   1   1   1   1   1   1   1 -59
 -59   1   1   1   1   1   1   1   1   1   1   1   1   1   1   1   1   1   1   1
   1   1   1   1   1   1   1   1   1   1   1   1   1   1   1   1   1   1   1 -59
 -59   1   1   1   1   1   1   1   1   1   1   1   1   1   1   1   1   1   1   1
   1   1   1   1   1   1   1   1   1   1   1   1   1   1   1   1   1   1   1 -59
 -59   1   1   1   1   1   1   1   1   1   1   1   1   1   1   1   1   1   1   1
   1   1   1   1   1   1   1   1   1   1   1   1   1   1   1   1   1   1   1 -59
 -59   1   1   1   1   1   1   1   1   1   1   1   1   1   1   1   1   1   1   1
   1   1   1   1   1   1   1   1   1   1   1   1   1   1   1   1   1   1   1 -59
 -59   1   1   1   1   1   1   1   1   1   1   1   1   1   1   1   1   1   1   1
   1   1   1   1   1   1   1   1   1   1   1   1   1   1   1   1   1   1   1 -59
 -59   1   1   1   1   1   1   1   1   1   1   1   1   1   1   1   1   1   1   1
   1   1   1   1   1   1   1   1   1   1   1   1   1   1   1   1   1   1   1 -59
 -59   1   1   1   1   1   1   1   1   1   1   1   1   1   1   1   1   1   1   1
   1   1   1   1   1   1   1   1   1   1   1   1   1   1   1   1   1   1   1 -59
 -59   1   1   1   1   1   1   1   1   1   1   1   1   1   1   1   1   1   1   1
   1   1   1   1   1   1   1   1   1   1   1   1   1   1   1   1   1   1   1 -59
 -59 -59 -59 -59 -59 -59 -59 -59 -59 -59 -59 -59 -59 -59 -59 -59 -59 -59 -59 -59
 -59 -59 -59 -59 -59 -59 -59 -59 -59 -59 -59 -59 -59 -59 -59 -59 -59 -59 -59 -59
INTERNAL          1 (20I4)    -2  IBOUND layer   2
 -59 -59 -59 -59 -59 -59 -59 -59 -59 -59 -59 -59 -59 -59 -59 -59 -59 -59 -59 -59
 -59 -59 -59 -59 -59 -59 -59 -59 -59 -59 -59 -59 -59 -59 -59 -59 -59 -59 -59 -59
 -59   1   1   1   1   1   1   1   1   1   1   1   1   1   1   1   1   1   1   1
   1   1   1   1   1   1   1   1   1   1   1   1   1   1   1   1   1   1   1 -59
 -59   1   1   1   1   1   1   1   1   1   1   1   1   1   1   1   1   1   1   1
   1   1   1   1   1   1   1   1   1   1   1   1   1   1   1   1   1   1   1 -59
 -59   1   1   1   1   1   1   1   1   1   1   1   1   1   1   1   1   1   1   1
   1   1   1   1   1   1   1   1   1   1   1   1   1   1   1   1   1   1   1 -59
 -59   1   1   1   1   1   1   1   1   1   1   1   1   1   1   1   1   1   1   1
   1   1   1   1   1   1   1   1   1   1   1   1   1   1   1   1   1   1   1 -59
 -59   1   1   1   1   1   1   1   1   1   1   1   1   1   1   1   1   1   1   1
   1   1   1   1   1   1   1   1   1   1   1   1   1   1   1   1   1   1   1 -59
 -59   1   1   1   1   1   1   1   1   1   1   1   1   1   1   1   1   1   1   1
   1   1   1   1   1   1   1   1   1   1   1   1   1   1   1   1   1   1   1 -59
 -59   1   1   1   1   1   1   1   1   1   1   1   1   1   1   1   1   1   1   1
   1   1   1   1   1   1   1   1   1   1   1   1   1   1   1   1   1   1   1 -59
 -59   1   1   1   1   1   1   1   1   1   1   1   1   1   1   1   1   1   1   1
   1   1   1   1   1   1   1   1   1   1   1   1   1   1   1   1   1   1   1 -59
 -59   1   1   1   1   1   1   1   1   1   1   1   1   1   1   1   1   1   1   1
   1   1   1   1   1   1   1   1   1   1   1   1   1   1   1   1   1   1   1 -59
 -59   1   1   1   1   1   1   1   1   1   1   1   1   1   1   1   1   1   1   1
   1   1   1   1   1   1   1   1   1   1   1   1   1   1   1   1   1   1   1 -59
 -59   1   1   1   1   1   1   1   1   1   1   1   1   1   1   1   1   1   1   1
   1   1   1   1   1   1   1   1   1   1   1   1   1   1   1   1   1   1   1 -59
 -59   1   1   1   1   1   1   1   1   1   1   1   1   1   1   1   1   1   1   1
   1   1   1   1   1   1   1   1   1   1   1   1   1   1   1   1   1   1   1 -59
 -59   1   1   1   1   1   1   1   1   1   1   1   1   1   1   1   1   1   1   1
   1   1   1   1   1   1   1   1   1   1   1   1   1   1   1   1   1   1   1 -59
 -59   1   1   1   1   1   1   1   1   1   1   1   1   1   1   1   1   1   1   1
   1   1   1   1   1   1   1   1   1   1   1   1   1   1   1   1   1   1   1 -59
 -59   1   1   1   1   1   1   1   1   1   1   1   1   1   1   1   1   1   1   1
   1   1   1   1   1   1   1   1   1   1   1   1   1   1   1   1   1   1   1 -59
 -59   1   1   1   1   1   1   1   1   1   1   1   1   1   1   1   1   1   1   1
   1   1   1   1   1   1   1   1   1   1   1   1   1   1   1   1   1   1   1 -59
 -59   1   1   1   1   1   1   1   1   1   1   1   1   1   1   1   1   1   1   1
   1   1   1   1   1   1   1   1   1   1   1   1   1   1   1   1   1   1   1 -59
 -59   1   1   1   1   1   1   1   1   1   1   1   1   1   1   1   1   1   1   1
   1   1   1   1   1   1   1   1   1   1   1   1   1   1   1   1   1   1   1 -59
 -59   1   1   1   1   1   1   1   1   1   1   1   1   1   1   1   1   1   1   1
   1   1   1   1   1   1   1   1   1   1   1   1   1   1   1   1   1   1   1 -59
 -59   1   1   1   1   1   1   1   1   1   1   1   1   1   1   1   1   1   1   1
   1   1   1   1   1   1   1   1   1   1   1   1   1   1   1   1   1   1   1 -59
 -59   1   1   1   1   1   1   1   1   1   1   1   1   1   1   1   1   1   1   1
   1   1   1   1   1   1   1   1   1   1   1   1   1   1   1   1   1   1   1 -59
 -59   1   1   1   1   1   1   1   1   1   1   1   1   1   1   1   1   1   1   1
   1   1   1   1   1   1   1   1   1   1   1   1   1   1   1   1   1   1   1 -59
 -59   1   1   1   1   1   1   1   1   1   1   1   1   1   1   1   1   1   1   1
   1   1   1   1   1   1   1   1   1   1   1   1   1   1   1   1   1   1   1 -59
 -59 -59 -59 -59 -59 -59 -59 -59 -59 -59 -59 -59 -59 -59 -59 -59 -59 -59 -59 -59
 -59 -59 -59 -59 -59 -59 -59 -59 -59 -59 -59 -59 -59 -59 -59 -59 -59 -59 -59 -59
 0.000E+00  HNOFLO
INTERNAL   1.000000E+00 (10F13.0)   -1  Initial Head layer   1
 1.000000E+01 1.000000E+01 1.000000E+01 1.000000E+01 1.000000E+01 1.000000E+01 1.000000E+01 1.000000E+01 1.000000E+01 1.000000E+01
 1.000000E+01 1.000000E+01 1.000000E+01 1.000000E+01 1.000000E+01 1.000000E+01 1.000000E+01 1.000000E+01 1.000000E+01 1.000000E+01
 1.000000E+01 1.000000E+01 1.000000E+01 1.000000E+01 1.000000E+01 1.000000E+01 1.000000E+01 1.000000E+01 1.000000E+01 1.000000E+01
 1.000000E+01 1.000000E+01 1.000000E+01 1.000000E+01 1.000000E+01 1.000000E+01 1.000000E+01 1.000000E+01 1.000000E+01 1.000000E+01
 1.000000E+01 1.000000E+01 1.000000E+01 1.000000E+01 1.000000E+01 1.000000E+01 1.000000E+01 1.000000E+01 1.000000E+01 1.000000E+01
 1.000000E+01 1.000000E+01 1.000000E+01 1.000000E+01 1.000000E+01 1.000000E+01 1.000000E+01 1.000000E+01 1.000000E+01 1.000000E+01
 1.000000E+01 1.000000E+01 1.000000E+01 1.000000E+01 1.000000E+01 1.000000E+01 1.000000E+01 1.000000E+01 1.000000E+01 1.000000E+01
 1.000000E+01 1.000000E+01 1.000000E+01 1.000000E+01 1.000000E+01 1.000000E+01 1.000000E+01 1.000000E+01 1.000000E+01 1.000000E+01
 1.000000E+01 1.000000E+01 1.000000E+01 1.000000E+01 1.000000E+01 1.000000E+01 1.000000E+01 1.000000E+01 1.000000E+01 1.000000E+01
 1.000000E+01 1.000000E+01 1.000000E+01 1.000000E+01 1.000000E+01 1.000000E+01 1.000000E+01 1.000000E+01 1.000000E+01 1.000000E+01
 1.000000E+01 1.000000E+01 1.000000E+01 1.000000E+01 1.000000E+01 1.000000E+01 1.000000E+01 1.000000E+01 1.000000E+01 1.000000E+01
 1.000000E+01 1.000000E+01 1.000000E+01 1.000000E+01 1.000000E+01 1.000000E+01 1.000000E+01 1.000000E+01 1.000000E+01 1.000000E+01
 1.000000E+01 1.000000E+01 1.000000E+01 1.000000E+01 1.000000E+01 1.000000E+01 1.000000E+01 1.000000E+01 1.000000E+01 1.000000E+01
 1.000000E+01 1.000000E+01 1.000000E+01 1.000000E+01 1.000000E+01 1.000000E+01 1.000000E+01 1.000000E+01 1.000000E+01 1.000000E+01
 1.000000E+01 1.000000E+01 1.000000E+01 1.000000E+01 1.000000E+01 1.000000E+01 1.000000E+01 1.000000E+01 1.000000E+01 1.000000E+01
 1.000000E+01 1.000000E+01 1.000000E+01 1.000000E+01 1.000000E+01 1.000000E+01 1.000000E+01 1.000000E+01 1.000000E+01 1.000000E+01
 1.000000E+01 1.000000E+01 1.000000E+01 1.000000E+01 1.000000E+01 1.000000E+01 1.000000E+01 1.000000E+01 1.000000E+01 1.000000E+01
 1.000000E+01 1.000000E+01 1.000000E+01 1.000000E+01 1.000000E+01 1.000000E+01 1.000000E+01 1.000000E+01 1.000000E+01 1.000000E+01
 1.000000E+01 1.000000E+01 1.000000E+01 1.000000E+01 1.000000E+01 1.000000E+01 1.000000E+01 1.000000E+01 1.000000E+01 1.000000E+01
 1.000000E+01 1.000000E+01 1.000000E+01 1.000000E+01 1.000000E+01 1.000000E+01 1.000000E+01 1.000000E+01 1.000000E+01 1.000000E+01
 1.000000E+01 1.000000E+01 1.000000E+01 1.000000E+01 1.000000E+01 1.000000E+01 1.000000E+01 1.000000E+01 1.000000E+01 1.000000E+01
 1.000000E+01 1.000000E+01 1.000000E+01 1.000000E+01 1.000000E+01 1.000000E+01 1.000000E+01 1.000000E+01 1.000000E+01 1.000000E+01
 1.000000E+01 1.000000E+01 1.000000E+01 1.000000E+01 1.000000E+01 1.000000E+01 1.000000E+01 1.000000E+01 1.000000E+01 1.000000E+01
 1.000000E+01 1.000000E+01 1.000000E+01 1.000000E+01 1.000000E+01 1.000000E+01 1.000000E+01 1.000000E+01 1.000000E+01 1.000000E+01
 1.000000E+01 1.000000E+01 1.000000E+01 1.000000E+01 1.000000E+01 1.000000E+01 1.000000E+01 1.000000E+01 1.000000E+01 1.000000E+01
 1.000000E+01 1.000000E+01 1.000000E+01 1.000000E+01 1.000000E+01 1.000000E+01 1.000000E+01 1.000000E+01 1.000000E+01 1.000000E+01
 1.000000E+01 1.000000E+01 1.000000E+01 1.000000E+01 1.000000E+01 1.000000E+01 1.000000E+01 1.000000E+01 1.000000E+01 1.000000E+01
 1.000000E+01 1.000000E+01 1.000000E+01 1.000000E+01 1.000000E+01 1.000000E+01 1.000000E+01 1.000000E+01 1.000000E+01 1.000000E+01
 1.000000E+01 1.000000E+01 1.000000E+01 1.000000E+01 1.000000E+01 1.000000E+01 1.000000E+01 1.000000E+01 1.000000E+01 1.000000E+01
 1.000000E+01 1.000000E+01 1.000000E+01 1.000000E+01 1.000000E+01 1.000000E+01 1.000000E+01 1.000000E+01 1.000000E+01 1.000000E+01
 1.000000E+01 1.000000E+01 1.000000E+01 1.000000E+01 1.000000E+01 1.000000E+01 1.000000E+01 1.000000E+01 1.000000E+01 1.000000E+01
 1.000000E+01 1.000000E+01 1.000000E+01 1.000000E+01 1.000000E+01 1.000000E+01 1.000000E+01 1.000000E+01 1.000000E+01 1.000000E+01
 1.000000E+01 1.000000E+01 1.000000E+01 1.000000E+01 1.000000E+01 1.000000E+01 1.000000E+01 1.000000E+01 1.000000E+01 1.000000E+01
 1.000000E+01 1.000000E+01 1.000000E+01 1.000000E+01 1.000000E+01 1.000000E+01 1.000000E+01 1.000000E+01 1.000000E+01 1.000000E+01
 1.000000E+01 1.000000E+01 1.000000E+01 1.000000E+01 1.000000E+01 1.000000E+01 1.000000E+01 1.000000E+01 1.000000E+01 1.000000E+01
 1.000000E+01 1.000000E+01 1.000000E+01 1.000000E+01 1.000000E+01 1.000000E+01 1.000000E+01 1.000000E+01 1.000000E+01 1.000000E+01
 1.000000E+01 1.000000E+01 1.000000E+01 1.000000E+01 1.000000E+01 1.000000E+01 1.000000E+01 1.000000E+01 1.000000E+01 1.000000E+01
 1.000000E+01 1.000000E+01 1.000000E+01 1.000000E+01 1.000000E+01 1.000000E+01 1.000000E+01 1.000000E+01 1.000000E+01 1.000000E+01
 1.000000E+01 1.000000E+01 1.000000E+01 1.000000E+01 1.000000E+01 1.000000E+01 1.000000E+01 1.000000E+01 1.000000E+01 1.000000E+01
 1.000000E+01 1.000000E+01 1.000000E+01 1.000000E+01 1.000000E+01 1.000000E+01 1.000000E+01 1.000000E+01 1.000000E+01 1.000000E+01
 1.000000E+01 1.000000E+01 1.000000E+01 1.000000E+01 1.000000E+01 1.000000E+01 1.000000E+01 1.000000E+01 1.000000E+01 1.000000E+01
 1.000000E+01 1.000000E+01 1.000000E+01 1.000000E+01 1.000000E+01 1.000000E+01 1.000000E+01 1.000000E+01 1.000000E+01 1.000000E+01
 1.000000E+01 1.000000E+01 1.000000E+01 1.000000E+01 1.000000E+01 1.000000E+01 1.000000E+01 1.000000E+01 1.000000E+01 1.000000E+01
 1.000000E+01 1.000000E+01 1.000000E+01 1.000000E+01 1.000000E+01 1.000000E+01 1.000000E+01 1.000000E+01 1.000000E+01 1.000000E+01
 1.000000E+01 1.000000E+01 1.000000E+01 1.000000E+01 1.000000E+01 1.000000E+01 1.000000E+01 1.000000E+01 1.000000E+01 1.000000E+01
 1.000000E+01 1.000000E+01 1.000000E+01 1.000000E+01 1.000000E+01 1.000000E+01 1.000000E+01 1.000000E+01 1.000000E+01 1.000000E+01
 1.000000E+01 1.000000E+01 1.000000E+01 1.000000E+01 1.000000E+01 1.000000E+01 1.000000E+01 1.000000E+01 1.000000E+01 1.000000E+01
 1.000000E+01 1.000000E+01 1.000000E+01 1.000000E+01 1.000000E+01 1.000000E+01 1.000000E+01 1.000000E+01 1.000000E+01 1.000000E+01
 1.000000E+01 1.000000E+01 1.000000E+01 1.000000E+01 1.000000E+01 1.000000E+01 1.000000E+01 1.000000E+01 1.000000E+01 1.000000E+01
 1.000000E+01 1.000000E+01 1.000000E+01 1.000000E+01 1.000000E+01 1.000000E+01 1.000000E+01 1.000000E+01 1.000000E+01 1.000000E+01
 1.000000E+01 1.000000E+01 1.000000E+01 1.000000E+01 1.000000E+01 1.000000E+01 1.000000E+01 1.000000E+01 1.000000E+01 1.000000E+01
 1.000000E+01 1.000000E+01 1.000000E+01 1.000000E+01 1.000000E+01 1.000000E+01 1.000000E+01 1.000000E+01 1.000000E+01 1.000000E+01
 1.000000E+01 1.000000E+01 1.000000E+01 1.000000E+01 1.000000E+01 1.000000E+01 1.000000E+01 1.000000E+01 1.000000E+01 1.000000E+01
 1.000000E+01 1.000000E+01 1.000000E+01 1.000000E+01 1.000000E+01 1.000000E+01 1.000000E+01 1.000000E+01 1.000000E+01 1.000000E+01
 1.000000E+01 1.000000E+01 1.000000E+01 1.000000E+01 1.000000E+01 1.000000E+01 1.000000E+01 1.000000E+01 1.000000E+01 1.000000E+01
 1.000000E+01 1.000000E+01 1.000000E+01 1.000000E+01 1.000000E+01 1.000000E+01 1.000000E+01 1.000000E+01 1.000000E+01 1.000000E+01
 1.000000E+01 1.000000E+01 1.000000E+01 1.000000E+01 1.000000E+01 1.000000E+01 1.000000E+01 1.000000E+01 1.000000E+01 1.000000E+01
 1.000000E+01 1.000000E+01 1.000000E+01 1.000000E+01 1.000000E+01 1.000000E+01 1.000000E+01 1.000000E+01 1.000000E+01 1.000000E+01
 1.000000E+01 1.000000E+01 1.000000E+01 1.000000E+01 1.000000E+01 1.000000E+01 1.000000E+01 1.000000E+01 1.000000E+01 1.000000E+01
 1.000000E+01 1.000000E+01 1.000000E+01 1.000000E+01 1.000000E+01 1.000000E+01 1.000000E+01 1.000000E+01 1.000000E+01 1.000000E+01
 1.000000E+01 1.000000E+01 1.000000E+01 1.000000E+01 1.000000E+01 1.000000E+01 1.000000E+01 1.000000E+01 1.000000E+01 1.000000E+01
 1.000000E+01 1.000000E+01 1.000000E+01 1.000000E+01 1.000000E+01 1.000000E+01 1.000000E+01 1.000000E+01 1.000000E+01 1.000000E+01
 1.000000E+01 1.000000E+01 1.000000E+01 1.000000E+01 1.000000E+01 1.000000E+01 1.000000E+01 1.000000E+01 1.000000E+01 1.000000E+01
 1.000000E+01 1.000000E+01 1.000000E+01 1.000000E+01 1.000000E+01 1.000000E+01 1.000000E+01 1.000000E+01 1.000000E+01 1.000000E+01
 1.000000E+01 1.000000E+01 1.000000E+01 1.000000E+01 1.000000E+01 1.000000E+01 1.000000E+01 1.000000E+01 1.000000E+01 1.000000E+01
 1.000000E+01 1.000000E+01 1.000000E+01 1.000000E+01 1.000000E+01 1.000000E+01 1.000000E+01 1.000000E+01 1.000000E+01 1.000000E+01
 1.000000E+01 1.000000E+01 1.000000E+01 1.000000E+01 1.000000E+01 1.000000E+01 1.000000E+01 1.000000E+01 1.000000E+01 1.000000E+01
 1.000000E+01 1.000000E+01 1.000000E+01 1.000000E+01 1.000000E+01 1.000000E+01 1.000000E+01 1.000000E+01 1.000000E+01 1.000000E+01
 1.000000E+01 1.000000E+01 1.000000E+01 1.000000E+01 1.000000E+01 1.000000E+01 1.000000E+01 1.000000E+01 1.000000E+01 1.000000E+01
 1.000000E+01 1.000000E+01 1.000000E+01 1.000000E+01 1.000000E+01 1.000000E+01 1.000000E+01 1.000000E+01 1.000000E+01 1.000000E+01
 1.000000E+01 1.000000E+01 1.000000E+01 1.000000E+01 1.000000E+01 1.000000E+01 1.000000E+01 1.000000E+01 1.000000E+01 1.000000E+01
 1.000000E+01 1.000000E+01 1.000000E+01 1.000000E+01 1.000000E+01 1.000000E+01 1.000000E+01 1.000000E+01 1.000000E+01 1.000000E+01
 1.000000E+01 1.000000E+01 1.000000E+01 1.000000E+01 1.000000E+01 1.000000E+01 1.000000E+01 1.000000E+01 1.000000E+01 1.000000E+01
 1.000000E+01 1.000000E+01 1.000000E+01 1.000000E+01 1.000000E+01 1.000000E+01 1.000000E+01 1.000000E+01 1.000000E+01 1.000000E+01
 1.000000E+01 1.000000E+01 1.000000E+01 1.000000E+01 1.000000E+01 1.000000E+01 1.000000E+01 1.000000E+01 1.000000E+01 1.000000E+01
 1.000000E+01 1.000000E+01 1.000000E+01 1.000000E+01 1.000000E+01 1.000000E+01 1.000000E+01 1.000000E+01 1.000000E+01 1.000000E+01
 1.000000E+01 1.000000E+01 1.000000E+01 1.000000E+01 1.000000E+01 1.000000E+01 1.000000E+01 1.000000E+01 1.000000E+01 1.000000E+01
 1.000000E+01 1.000000E+01 1.000000E+01 1.000000E+01 1.000000E+01 1.000000E+01 1.000000E+01 1.000000E+01 1.000000E+01 1.000000E+01
 1.000000E+01 1.000000E+01 1.000000E+01 1.000000E+01 1.000000E+01 1.000000E+01 1.000000E+01 1.000000E+01 1.000000E+01 1.000000E+01
 1.000000E+01 1.000000E+01 1.000000E+01 1.000000E+01 1.000000E+01 1.000000E+01 1.000000E+01 1.000000E+01 1.000000E+01 1.000000E+01
 1.000000E+01 1.000000E+01 1.000000E+01 1.000000E+01 1.000000E+01 1.000000E+01 1.000000E+01 1.000000E+01 1.000000E+01 1.000000E+01
 1.000000E+01 1.000000E+01 1.000000E+01 1.000000E+01 1.000000E+01 1.000000E+01 1.000000E+01 1.000000E+01 1.000000E+01 1.000000E+01
 1.000000E+01 1.000000E+01 1.000000E+01 1.000000E+01 1.000000E+01 1.000000E+01 1.000000E+01 1.000000E+01 1.000000E+01 1.000000E+01
 1.000000E+01 1.000000E+01 1.000000E+01 1.000000E+01 1.000000E+01 1.000000E+01 1.000000E+01 1.000000E+01 1.000000E+01 1.000000E+01
 1.000000E+01 1.000000E+01 1.000000E+01 1.000000E+01 1.000000E+01 1.000000E+01 1.000000E+01 1.000000E+01 1.000000E+01 1.000000E+01
 1.000000E+01 1.000000E+01 1.000000E+01 1.000000E+01 1.000000E+01 1.000000E+01 1.000000E+01 1.000000E+01 1.000000E+01 1.000000E+01
 1.000000E+01 1.000000E+01 1.000000E+01 1.000000E+01 1.000000E+01 1.000000E+01 1.000000E+01 1.000000E+01 1.000000E+01 1.000000E+01
 1.000000E+01 1.000000E+01 1.000000E+01 1.000000E+01 1.000000E+01 1.000000E+01 1.000000E+01 1.000000E+01 1.000000E+01 1.000000E+01
 1.000000E+01 1.000000E+01 1.000000E+01 1.000000E+01 1.000000E+01 1.000000E+01 1.000000E+01 1.000000E+01 1.000000E+01 1.000000E+01
 1.000000E+01 1.000000E+01 1.000000E+01 1.000000E+01 1.000000E+01 1.000000E+01 1.000000E+01 1.000000E+01 1.000000E+01 1.000000E+01
 1.000000E+01 1.000000E+01 1.000000E+01 1.000000E+01 1.000000E+01 1.000000E+01 1.000000E+01 1.000000E+01 1.000000E+01 1.000000E+01
 1.000000E+01 1.000000E+01 1.000000E+01 1.000000E+01 1.000000E+01 1.000000E+01 1.000000E+01 1.000000E+01 1.000000E+01 1.000000E+01
 1.000000E+01 1.000000E+01 1.000000E+01 1.000000E+01 1.000000E+01 1.000000E+01 1.000000E+01 1.000000E+01 1.000000E+01 1.000000E+01
 1.000000E+01 1.000000E+01 1.000000E+01 1.000000E+01 1.000000E+01 1.000000E+01 1.000000E+01 1.000000E+01 1.000000E+01 1.000000E+01
 1.000000E+01 1.000000E+01 1.000000E+01 1.000000E+01 1.000000E+01 1.000000E+01 1.000000E+01 1.000000E+01 1.000000E+01 1.000000E+01
 1.000000E+01 1.000000E+01 1.000000E+01 1.000000E+01 1.000000E+01 1.000000E+01 1.000000E+01 1.000000E+01 1.000000E+01 1.000000E+01
 1.000000E+01 1.000000E+01 1.000000E+01 1.000000E+01 1.000000E+01 1.000000E+01 1.000000E+01 1.000000E+01 1.000000E+01 1.000000E+01
 1.000000E+01 1.000000E+01 1.000000E+01 1.000000E+01 1.000000E+01 1.000000E+01 1.000000E+01 1.000000E+01 1.000000E+01 1.000000E+01
 1.000000E+01 1.000000E+01 1.000000E+01 1.000000E+01 1.000000E+01 1.000000E+01 1.000000E+01 1.000000E+01 1.000000E+01 1.000000E+01
 1.000000E+01 1.000000E+01 1.000000E+01 1.000000E+01 1.000000E+01 1.000000E+01 1.000000E+01 1.000000E+01 1.000000E+01 1.000000E+01
INTERNAL   1.000000E+00 (10F13.0)   -1  Initial Head layer   2
 1.000000E+01 1.000000E+01 1.000000E+01 1.000000E+01 1.000000E+01 1.000000E+01 1.000000E+01 1.000000E+01 1.000000E+01 1.000000E+01
 1.000000E+01 1.000000E+01 1.000000E+01 1.000000E+01 1.000000E+01 1.000000E+01 1.000000E+01 1.000000E+01 1.000000E+01 1.000000E+01
 1.000000E+01 1.000000E+01 1.000000E+01 1.000000E+01 1.000000E+01 1.000000E+01 1.000000E+01 1.000000E+01 1.000000E+01 1.000000E+01
 1.000000E+01 1.000000E+01 1.000000E+01 1.000000E+01 1.000000E+01 1.000000E+01 1.000000E+01 1.000000E+01 1.000000E+01 1.000000E+01
 1.000000E+01 1.000000E+01 1.000000E+01 1.000000E+01 1.000000E+01 1.000000E+01 1.000000E+01 1.000000E+01 1.000000E+01 1.000000E+01
 1.000000E+01 1.000000E+01 1.000000E+01 1.000000E+01 1.000000E+01 1.000000E+01 1.000000E+01 1.000000E+01 1.000000E+01 1.000000E+01
 1.000000E+01 1.000000E+01 1.000000E+01 1.000000E+01 1.000000E+01 1.000000E+01 1.000000E+01 1.000000E+01 1.000000E+01 1.000000E+01
 1.000000E+01 1.000000E+01 1.000000E+01 1.000000E+01 1.000000E+01 1.000000E+01 1.000000E+01 1.000000E+01 1.000000E+01 1.000000E+01
 1.000000E+01 1.000000E+01 1.000000E+01 1.000000E+01 1.000000E+01 1.000000E+01 1.000000E+01 1.000000E+01 1.000000E+01 1.000000E+01
 1.000000E+01 1.000000E+01 1.000000E+01 1.000000E+01 1.000000E+01 1.000000E+01 1.000000E+01 1.000000E+01 1.000000E+01 1.000000E+01
 1.000000E+01 1.000000E+01 1.000000E+01 1.000000E+01 1.000000E+01 1.000000E+01 1.000000E+01 1.000000E+01 1.000000E+01 1.000000E+01
 1.000000E+01 1.000000E+01 1.000000E+01 1.000000E+01 1.000000E+01 1.000000E+01 1.000000E+01 1.000000E+01 1.000000E+01 1.000000E+01
 1.000000E+01 1.000000E+01 1.000000E+01 1.000000E+01 1.000000E+01 1.000000E+01 1.000000E+01 1.000000E+01 1.000000E+01 1.000000E+01
 1.000000E+01 1.000000E+01 1.000000E+01 1.000000E+01 1.000000E+01 1.000000E+01 1.000000E+01 1.000000E+01 1.000000E+01 1.000000E+01
 1.000000E+01 1.000000E+01 1.000000E+01 1.000000E+01 1.000000E+01 1.000000E+01 1.000000E+01 1.000000E+01 1.000000E+01 1.000000E+01
 1.000000E+01 1.000000E+01 1.000000E+01 1.000000E+01 1.000000E+01 1.000000E+01 1.000000E+01 1.000000E+01 1.000000E+01 1.000000E+01
 1.000000E+01 1.000000E+01 1.000000E+01 1.000000E+01 1.000000E+01 1.000000E+01 1.000000E+01 1.000000E+01 1.000000E+01 1.000000E+01
 1.000000E+01 1.000000E+01 1.000000E+01 1.000000E+01 1.000000E+01 1.000000E+01 1.000000E+01 1.000000E+01 1.000000E+01 1.000000E+01
 1.000000E+01 1.000000E+01 1.000000E+01 1.000000E+01 1.000000E+01 1.000000E+01 1.000000E+01 1.000000E+01 1.000000E+01 1.000000E+01
 1.000000E+01 1.000000E+01 1.000000E+01 1.000000E+01 1.000000E+01 1.000000E+01 1.000000E+01 1.000000E+01 1.000000E+01 1.000000E+01
 1.000000E+01 1.000000E+01 1.000000E+01 1.000000E+01 1.000000E+01 1.000000E+01 1.000000E+01 1.000000E+01 1.000000E+01 1.000000E+01
 1.000000E+01 1.000000E+01 1.000000E+01 1.000000E+01 1.000000E+01 1.000000E+01 1.000000E+01 1.000000E+01 1.000000E+01 1.000000E+01
 1.000000E+01 1.000000E+01 1.000000E+01 1.000000E+01 1.000000E+01 1.000000E+01 1.000000E+01 1.000000E+01 1.000000E+01 1.000000E+01
 1.000000E+01 1.000000E+01 1.000000E+01 1.000000E+01 1.000000E+01 1.000000E+01 1.000000E+01 1.000000E+01 1.000000E+01 1.000000E+01
 1.000000E+01 1.000000E+01 1.000000E+01 1.000000E+01 1.000000E+01 1.000000E+01 1.000000E+01 1.000000E+01 1.000000E+01 1.000000E+01
 1.000000E+01 1.000000E+01 1.000000E+01 1.000000E+01 1.000000E+01 1.000000E+01 1.000000E+01 1.000000E+01 1.000000E+01 1.000000E+01
 1.000000E+01 1.000000E+01 1.000000E+01 1.000000E+01 1.000000E+01 1.000000E+01 1.000000E+01 1.000000E+01 1.000000E+01 1.000000E+01
 1.000000E+01 1.000000E+01 1.000000E+01 1.000000E+01 1.000000E+01 1.000000E+01 1.000000E+01 1.000000E+01 1.000000E+01 1.000000E+01
 1.000000E+01 1.000000E+01 1.000000E+01 1.000000E+01 1.000000E+01 1.000000E+01 1.000000E+01 1.000000E+01 1.000000E+01 1.000000E+01
 1.000000E+01 1.000000E+01 1.000000E+01 1.000000E+01 1.000000E+01 1.000000E+01 1.000000E+01 1.000000E+01 1.000000E+01 1.000000E+01
 1.000000E+01 1.000000E+01 1.000000E+01 1.000000E+01 1.000000E+01 1.000000E+01 1.000000E+01 1.000000E+01 1.000000E+01 1.000000E+01
 1.000000E+01 1.000000E+01 1.000000E+01 1.000000E+01 1.000000E+01 1.000000E+01 1.000000E+01 1.000000E+01 1.000000E+01 1.000000E+01
 1.000000E+01 1.000000E+01 1.000000E+01 1.000000E+01 1.000000E+01 1.000000E+01 1.000000E+01 1.000000E+01 1.000000E+01 1.000000E+01
 1.000000E+01 1.000000E+01 1.000000E+01 1.000000E+01 1.000000E+01 1.000000E+01 1.000000E+01 1.000000E+01 1.000000E+01 1.000000E+01
 1.000000E+01 1.000000E+01 1.000000E+01 1.000000E+01 1.000000E+01 1.000000E+01 1.000000E+01 1.000000E+01 1.000000E+01 1.000000E+01
 1.000000E+01 1.000000E+01 1.000000E+01 1.000000E+01 1.000000E+01 1.000000E+01 1.000000E+01 1.000000E+01 1.000000E+01 1.000000E+01
 1.000000E+01 1.000000E+01 1.000000E+01 1.000000E+01 1.000000E+01 1.000000E+01 1.000000E+01 1.000000E+01 1.000000E+01 1.000000E+01
 1.000000E+01 1.000000E+01 1.000000E+01 1.000000E+01 1.000000E+01 1.000000E+01 1.000000E+01 1.000000E+01 1.000000E+01 1.000000E+01
 1.000000E+01 1.000000E+01 1.000000E+01 1.000000E+01 1.000000E+01 1.000000E+01 1.000000E+01 1.000000E+01 1.000000E+01 1.000000E+01
 1.000000E+01 1.000000E+01 1.000000E+01 1.000000E+01 1.000000E+01 1.000000E+01 1.000000E+01 1.000000E+01 1.000000E+01 1.000000E+01
 1.000000E+01 1.000000E+01 1.000000E+01 1.000000E+01 1.000000E+01 1.000000E+01 1.000000E+01 1.000000E+01 1.000000E+01 1.000000E+01
 1.000000E+01 1.000000E+01 1.000000E+01 1.000000E+01 1.000000E+01 1.000000E+01 1.000000E+01 1.000000E+01 1.000000E+01 1.000000E+01
 1.000000E+01 1.000000E+01 1.000000E+01 1.000000E+01 1.000000E+01 1.000000E+01 1.000000E+01 1.000000E+01 1.000000E+01 1.000000E+01
 1.000000E+01 1.000000E+01 1.000000E+01 1.000000E+01 1.000000E+01 1.000000E+01 1.000000E+01 1.000000E+01 1.000000E+01 1.000000E+01
 1.000000E+01 1.000000E+01 1.000000E+01 1.000000E+01 1.000000E+01 1.000000E+01 1.000000E+01 1.000000E+01 1.000000E+01 1.000000E+01
 1.000000E+01 1.000000E+01 1.000000E+01 1.000000E+01 1.000000E+01 1.000000E+01 1.000000E+01 1.000000E+01 1.000000E+01 1.000000E+01
 1.000000E+01 1.000000E+01 1.000000E+01 1.000000E+01 1.000000E+01 1.000000E+01 1.000000E+01 1.000000E+01 1.000000E+01 1.000000E+01
 1.000000E+01 1.000000E+01 1.000000E+01 1.000000E+01 1.000000E+01 1.000000E+01 1.000000E+01 1.000000E+01 1.000000E+01 1.000000E+01
 1.000000E+01 1.000000E+01 1.000000E+01 1.000000E+01 1.000000E+01 1.000000E+01 1.000000E+01 1.000000E+01 1.000000E+01 1.000000E+01
 1.000000E+01 1.000000E+01 1.000000E+01 1.000000E+01 1.000000E+01 1.000000E+01 1.000000E+01 1.000000E+01 1.000000E+01 1.000000E+01
 1.000000E+01 1.000000E+01 1.000000E+01 1.000000E+01 1.000000E+01 1.000000E+01 1.000000E+01 1.000000E+01 1.000000E+01 1.000000E+01
 1.000000E+01 1.000000E+01 1.000000E+01 1.000000E+01 1.000000E+01 1.000000E+01 1.000000E+01 1.000000E+01 1.000000E+01 1.000000E+01
 1.000000E+01 1.000000E+01 1.000000E+01 1.000000E+01 1.000000E+01 1.000000E+01 1.000000E+01 1.000000E+01 1.000000E+01 1.000000E+01
 1.000000E+01 1.000000E+01 1.000000E+01 1.000000E+01 1.000000E+01 1.000000E+01 1.000000E+01 1.000000E+01 1.000000E+01 1.000000E+01
 1.000000E+01 1.000000E+01 1.000000E+01 1.000000E+01 1.000000E+01 1.000000E+01 1.000000E+01 1.000000E+01 1.000000E+01 1.000000E+01
 1.000000E+01 1.000000E+01 1.000000E+01 1.000000E+01 1.000000E+01 1.000000E+01 1.000000E+01 1.000000E+01 1.000000E+01 1.000000E+01
 1.000000E+01 1.000000E+01 1.000000E+01 1.000000E+01 1.000000E+01 1.000000E+01 1.000000E+01 1.000000E+01 1.000000E+01 1.000000E+01
 1.000000E+01 1.000000E+01 1.000000E+01 1.000000E+01 1.000000E+01 1.000000E+01 1.000000E+01 1.000000E+01 1.000000E+01 1.000000E+01
 1.000000E+01 1.000000E+01 1.000000E+01 1.000000E+01 1.000000E+01 1.000000E+01 1.000000E+01 1.000000E+01 1.000000E+01 1.000000E+01
 1.000000E+01 1.000000E+01 1.000000E+01 1.000000E+01 1.000000E+01 1.000000E+01 1.000000E+01 1.000000E+01 1.000000E+01 1.000000E+01
 1.000000E+01 1.000000E+01 1.000000E+01 1.000000E+01 1.000000E+01 1.000000E+01 1.000000E+01 1.000000E+01 1.000000E+01 1.000000E+01
 1.000000E+01 1.000000E+01 1.000000E+01 1.000000E+01 1.000000E+01 1.000000E+01 1.000000E+01 1.000000E+01 1.000000E+01 1.000000E+01