#SEAWATER-LGR Sample Problem, RECH Child file
#December, 2007
PARAMETER  1 
         1        -1
REC-SP2   RCH   0.0020  1
NONE      ALL   1
         1         1
         REC-SP2  
