
                                  MODFLOW-2005     
    U.S. GEOLOGICAL SURVEY MODULAR FINITE-DIFFERENCE GROUND-WATER FLOW MODEL
                 Version MF2005_GWM 1.1 061209,FROM MF05V1.6.02  




 OPENING GWM FILE FOR GWM1 -- GROUND-WATER MANAGEMENT PROCESS
 INPUT READ FROM UNIT  15

 #DEWATER Sample Problem, GWM file                                                                                                                                                                       
 #August 12, 2007                                                                                                                                                                                        

 OPENING DECISION-VARIABLE FILE ON UNIT   99:
 ..\data\DEWATERMB\dewatermb.decvar                                                                                                                                                                      
 #DEWATER Sample Problem, DECVAR file
 #August 14, 2006

 NO. OF FLOW-RATE DECISION VARIABLES (NFVAR)       7
 NO. OF EXTERNAL DECISION VARIABLES (NEVAR):       0
 BINARY VARIABLES ARE ACTIVE. NBVAR:               7

 FLOW-RATE VARIABLES:
                                                   FRACTION
  NUMBER     NAME       TYPE      LAY   ROW   COL   OF FLOW
 ----------------------------------------------------------
    1      Q1         WITHDRAWAL     1    7   14    1.0000
   AVAILABLE IN STRESS PERIODS: 1                                                                                                                       

    2      Q2         WITHDRAWAL     1    7   16    1.0000
   AVAILABLE IN STRESS PERIODS: 1                                                                                                                       

    3      Q3         WITHDRAWAL     1    8   15    1.0000
   AVAILABLE IN STRESS PERIODS: 1                                                                                                                       

    4      Q4         WITHDRAWAL     1    9   14    1.0000
   AVAILABLE IN STRESS PERIODS: 1                                                                                                                       

    5      Q5         WITHDRAWAL     1    9   16    1.0000
   AVAILABLE IN STRESS PERIODS: 1                                                                                                                       

    6      Q6         WITHDRAWAL     1   11   17    1.0000
   AVAILABLE IN STRESS PERIODS: 1                                                                                                                       

    7      Q7         WITHDRAWAL     1   13   16    1.0000
   AVAILABLE IN STRESS PERIODS: 1                                                                                                                       


 BINARY VARIABLES:
                       NUMBER OF             NAME OF
  NUMBER     NAME  ASSOCIATED VARIABLES  ASSOCIATED VARIABLES
 -------------------------------------------------------

    1        BV1            1                Q1        
    2        BV2            1                Q2        
    3        BV3            1                Q3        
    4        BV4            1                Q4        
    5        BV5            1                Q5        
    6        BV6            1                Q6        
    7        BV7            1                Q7        

      672 BYTES OF MEMORY ALLOCATED TO STORE DATA FOR DECISION VARIABLES

 CLOSING DECISION-VARIABLE FILE


 OPENING OBJECTIVE-FUNCTION FILE ON UNIT   99:
 ..\data\DEWATERMB\dewatermb.objfnc                                                                                                                                                                      
 #DEWATER Sample Problem, OBJFNC file
 #February 20, 2005

 OBJECTIVE TYPE: MIN   FUNCTION TYPE: WSDV

 NO. OF FLOW-RATE DECISION VARIABLES IN OBJECTIVE FUNCTION (NFVOBJ):    7
 NO. OF EXTERNAL DECISION VARIABLES IN OBJECTIVE FUNCTION (NEVOBJ):     0
 NO. OF BINARY DECISION VARIABLES IN OBJECTIVE FUNCTION (NBVOBJ):       7

 OBJECTIVE FUNCTION: (excluding flow duration terms)

 MIN    +  2.00E-02 Q1         +  2.00E-02 Q2         +  2.00E-02 Q3        
        +  2.00E-02 Q4         +  2.00E-02 Q5         +  2.00E-02 Q6        
        +  2.00E-02 Q7         +  2.00E+03 BV1        +  2.00E+03 BV2       
        +  2.00E+03 BV3        +  2.00E+03 BV4        +  2.00E+03 BV5       
        +  2.00E+03 BV6        +  2.00E+03 BV7       

       56 BYTES OF MEMORY ALLOCATED TO STORE DATA FOR OBJECTIVE-FUNCTION

 CLOSING OBJECTIVE-FUNCTION FILE


 OPENING DECISION-VARIABLE CONSTRAINTS FILE
 ON UNIT   99:
 ..\data\DEWATERMB\dewatermb.varcon                                                                                                                                                                      
 #DEWATER Sample Problem, VARCON file
 #February 20, 2005

 CAUTION: WELL Q1         HAS A SPECIFIED REFERENCE
 FLOW RATE (FVREF) THAT IS LESS THAN THE MINIMUM
 SPECIFIED FLOW RATE (FVMIN).

 CAUTION: WELL Q2         HAS A SPECIFIED REFERENCE
 FLOW RATE (FVREF) THAT IS LESS THAN THE MINIMUM
 SPECIFIED FLOW RATE (FVMIN).

 CAUTION: WELL Q3         HAS A SPECIFIED REFERENCE
 FLOW RATE (FVREF) THAT IS LESS THAN THE MINIMUM
 SPECIFIED FLOW RATE (FVMIN).

 CAUTION: WELL Q4         HAS A SPECIFIED REFERENCE
 FLOW RATE (FVREF) THAT IS LESS THAN THE MINIMUM
 SPECIFIED FLOW RATE (FVMIN).

 CAUTION: WELL Q5         HAS A SPECIFIED REFERENCE
 FLOW RATE (FVREF) THAT IS LESS THAN THE MINIMUM
 SPECIFIED FLOW RATE (FVMIN).

 CAUTION: WELL Q6         HAS A SPECIFIED REFERENCE
 FLOW RATE (FVREF) THAT IS LESS THAN THE MINIMUM
 SPECIFIED FLOW RATE (FVMIN).

 CAUTION: WELL Q7         HAS A SPECIFIED REFERENCE
 FLOW RATE (FVREF) THAT IS LESS THAN THE MINIMUM
 SPECIFIED FLOW RATE (FVMIN).

 FLOW RATE VARIABLES:
                        MINIMUM        MAXIMUM        REFERENCE
  NUMBER   NAME         FLOW RATE      FLOW RATE      FLOW RATE
----------------------------------------------------------------
    1      Q1           1.000E+02      2.000E+04      0.000E+00
    2      Q2           1.000E+02      2.000E+04      0.000E+00
    3      Q3           1.000E+02      2.000E+04      0.000E+00
    4      Q4           1.000E+02      2.000E+04      0.000E+00
    5      Q5           1.000E+02      2.000E+04      0.000E+00
    6      Q6           1.000E+02      2.000E+04      0.000E+00
    7      Q7           1.000E+02      2.000E+04      0.000E+00

 CLOSING DECISION-VARIABLE CONSTRAINTS FILE


 OPENING HEAD CONSTRAINTS FILE
 ON UNIT   99:
 ..\data\DEWATERMB\dewater.hedcon                                                                                                                                                                        
 #DEWATER Sample Problem, HEDCON file
 #February 20, 2005

 HEAD CONSTRAINTS:
                                           RIGHT-HAND    STRESS
 NUMBER  NAME        LAY  ROW  COL  TYPE      SIDE       PERIOD
 ---------------------------------------------------------------
     1   b-01          1    6   13   <    5.0000E+01         1
     2   b-02          1    6   15   <    5.0000E+01         1
     3   b-03          1    6   17   <    5.0000E+01         1
     4   b-04          1    8   13   <    5.0000E+01         1
     5   b-05          1    8   17   <    5.0000E+01         1
     6   b-06          1   10   13   <    5.0000E+01         1
     7   b-07          1   10   15   <    5.0000E+01         1
     8   b-08          1   11   16   <    5.0000E+01         1
     9   b-09          1   14   16   <    5.0000E+01         1
    10   b-10          1   14   17   <    5.0000E+01         1

      660 BYTES OF MEMORY ALLOCATED TO STORE DATA FOR HEAD CONSTRAINTS

 CLOSING HEAD CONSTRAINTS FILE


 OPENING SUMMATION CONSTRAINTS FILE
 ON UNIT   99:
 ..\data\DEWATERMB\dewatermb.sumcon                                                                                                                                                                      
 #DEWATER Sample Problem, SUMCON file
 #February 20, 2005

 NUMBER OF SUMMATION CONSTRAINTS:     1

 SUMMATION CONSTRAINTS:

 Binlower  
   +  1.00E+00 BV1        +  1.00E+00 BV2        +  1.00E+00 BV3       
   +  1.00E+00 BV4        +  1.00E+00 BV5        +  1.00E+00 BV6       
   +  1.00E+00 BV7       

  >=   3.00E+00

       82 BYTES OF MEMORY ALLOCATED TO STORE DATA FOR SUMMATION CONSTRAINTS

 CLOSING SUMMATION CONSTRAINTS FILE


 OPENING SOLUTION FILE ON UNIT   99:
 ..\data\DEWATERMB\dewatermb.soln                                                                                                                                                                        
 #DEWATER Sample Problem, SOLN file
 #February 20, 2005

 SOLNTYP IS LP: GWM WILL COMPLETE A SINGLE ITERATION OF THE LINEAR PROBLEM.

 IRM EQUALS 2: RESPONSE MATRIX WILL BE CALCULATED BY GWM
 BUT NOT WRITTEN TO FILE

 MAXIMUM NUMBER OF LP ITERATIONS:               1000
 MAXIMUM NUMBER OF BRANCH AND BOUND ITER:       2000

 PERTURBATION VALUE:                          0.50D+00

 MAXIMUM NUMBER OF PERTURBATION ATTEMPTS:         10
 PERTURBATION ADJUSTMENT FACTOR (PGFACT):    0.50000

 OUTPUT FROM BRANCH AND BOUND ALGORITHM WILL BE PRINTED.

 BASE PUMPING RATES TAKEN FROM FVREF SPECIFIED IN VARCON INPUT FILE
 
     PROBLEM SIZE
 
  NUMBER OF VARIABLES (INCLUDING SLACKS)          39
  NUMBER OF CONSTRAINT EQUATIONS                  25
 

    23768 BYTES OF MEMORY ALLOCATED FOR RESPONSE MATRIX ALGORITHM

 CLOSING SOLUTION AND OUTPUT FILE

---------------------------------------------------------------
               Solution Algorithm
---------------------------------------------------------------
  Begin Solution Algorithm
    Running Base Flow Process Simulation
      Status of Simulation-Based Constraints 
      Constraint Type        Name     Status     Distance To RHS
      ---------------        ----     ------     ---------------
      Head Bound             b-01     Not Met         2.1724E+01
      Head Bound             b-02     Not Met         2.0345E+01
      Head Bound             b-03     Not Met         1.8966E+01
      Head Bound             b-04     Not Met         2.1724E+01
      Head Bound             b-05     Not Met         1.8966E+01
      Head Bound             b-06     Not Met         2.1724E+01
      Head Bound             b-07     Not Met         2.0345E+01
      Head Bound             b-08     Not Met         1.9655E+01
      Head Bound             b-09     Not Met         1.9655E+01
      Head Bound             b-10     Not Met         1.8966E+01
      Summation              Binlower Not Met         3.0000E+00

  Distance to RHS is the absolute value of the difference between the
    the right hand side of the constraint and the left side of the
    constraint evaluated using the current set of decision variable values.
    
    Calculating Response Matrix
      Perturb Flow Variable    1
       By Perturbation Value: -1.000000E+04
      Perturb Flow Variable    2
       By Perturbation Value: -1.000000E+04
      Perturb Flow Variable    3
       By Perturbation Value: -1.000000E+04
      Perturb Flow Variable    4
       By Perturbation Value: -1.000000E+04
      Perturb Flow Variable    5
       By Perturbation Value: -1.000000E+04
      Perturb Flow Variable    6
       By Perturbation Value: -1.000000E+04
      Perturb Flow Variable    7
       By Perturbation Value: -1.000000E+04
 
      Average Number of Significant Digits in Matrix  1.011429E+01
    
    Solving Linear Program
 REPORT BRANCH AND BOUND ITERATIONS
 
    Feasible Solution Found
 SUBPROBLEM           1 IS UNFATHOMED - IT IS RELAXED
    Name          Value       Name          Value       Name          Value
Flow Variables
    Q1          0.0000E+00    Q2          0.0000E+00    Q3          2.2370E+03
    Q4          1.0000E+02    Q5          0.0000E+00    Q6          0.0000E+00
    Q7          6.7864E+02
Binary Variables
    BV1         0.0000E+00    BV2         0.0000E+00    BV3         1.0000E+00
    BV4         1.0000E+00    BV5         0.0000E+00    BV6         0.0000E+00
    BV7         1.0000E+00
    Objective Function =  6.631228E+04
 
    Feasible Solution Found
 SUBPROBLEM           2 IS UNFATHOMED - IT IS RELAXED
    Name          Value       Name          Value       Name          Value
Flow Variables
    Q1          1.0774E+03    Q2          7.8239E+01    Q3          0.0000E+00
    Q4          7.6895E+02    Q5          0.0000E+00    Q6          0.0000E+00
    Q7          9.4108E+02
Binary Variables
    BV1         1.0000E+00    BV2         7.8239E-01    BV3         0.0000E+00
    BV4         1.0000E+00    BV5         0.0000E+00    BV6         0.0000E+00
    BV7         2.1761E-01
    Objective Function =  6.331310E+04
 
 NEXT: BRANCH FROM SUBPROBLEM           2
                 AND VARIABLE           2
    Feasible Solution Found
 SUBPROBLEM           3 IS UNFATHOMED - IT IS RELAXED
    Name          Value       Name          Value       Name          Value
Flow Variables
    Q1          1.0262E+03    Q2          0.0000E+00    Q3          2.1719E+02
    Q4          6.9619E+02    Q5          0.0000E+00    Q6          0.0000E+00
    Q7          9.2952E+02
Binary Variables
    BV1         1.0000E+00    BV2         0.0000E+00    BV3         1.0000E+00
    BV4         9.7676E-01    BV5         0.0000E+00    BV6         0.0000E+00
    BV7         2.3238E-02
    Objective Function =  6.338160E+04
 
    Feasible Solution Found
 SUBPROBLEM           4 IS UNFATHOMED - IT IS RELAXED
    Name          Value       Name          Value       Name          Value
Flow Variables
    Q1          1.0637E+03    Q2          1.0000E+02    Q3          0.0000E+00
    Q4          7.6690E+02    Q5          0.0000E+00    Q6          0.0000E+00
    Q7          9.3792E+02
Binary Variables
    BV1         1.0000E+00    BV2         1.0000E+00    BV3         0.0000E+00
    BV4         9.7655E-01    BV5         0.0000E+00    BV6         0.0000E+00
    BV7         2.3448E-02
    Objective Function =  6.337050E+04
 
 NEXT: BRANCH FROM SUBPROBLEM           4
                 AND VARIABLE           3
    Feasible Solution Found
 SUBPROBLEM           5 IS UNFATHOMED - IT IS RELAXED
    Name          Value       Name          Value       Name          Value
Flow Variables
    Q1          1.0637E+03    Q2          1.0000E+02    Q3          0.0000E+00
    Q4          7.6690E+02    Q5          0.0000E+00    Q6          0.0000E+00
    Q7          9.3792E+02
Binary Variables
    BV1         1.0000E+00    BV2         1.0000E+00    BV3         0.0000E+00
    BV4         9.7655E-01    BV5         0.0000E+00    BV6         0.0000E+00
    BV7         2.3448E-02
    Objective Function =  6.337050E+04
 
    Feasible Solution Found
 SUBPROBLEM           6 IS UNFATHOMED - IT IS RELAXED
    Name          Value       Name          Value       Name          Value
Flow Variables
    Q1          1.0175E+03    Q2          1.0000E+02    Q3          1.0000E+02
    Q4          7.3000E+02    Q5          0.0000E+00    Q6          0.0000E+00
    Q7          9.2736E+02
Binary Variables
    BV1         1.0000E+00    BV2         1.0000E+00    BV3         1.0000E+00
    BV4         1.8250E-02    BV5         0.0000E+00    BV6         0.0000E+00
    BV7         2.3184E-02
    Objective Function =  6.357993E+04
 
 NEXT: BRANCH FROM SUBPROBLEM           6
                 AND VARIABLE           4
    Feasible Solution Found
 SUBPROBLEM           7 IS UNFATHOMED - IT IS RELAXED
    Name          Value       Name          Value       Name          Value
Flow Variables
    Q1          1.0297E+02    Q2          1.0000E+02    Q3          2.0785E+03
    Q4          0.0000E+00    Q5          0.0000E+00    Q6          0.0000E+00
    Q7          7.1862E+02
Binary Variables
    BV1         1.0000E+00    BV2         1.0000E+00    BV3         1.0000E+00
    BV4         0.0000E+00    BV5         0.0000E+00    BV6         0.0000E+00
    BV7         1.7966E-02
    Objective Function =  6.603697E+04
 
    Feasible Solution Found
 SUBPROBLEM           8 IS UNFATHOMED - IT IS RELAXED
    Name          Value       Name          Value       Name          Value
Flow Variables
    Q1          1.0175E+03    Q2          1.0000E+02    Q3          1.0000E+02
    Q4          7.3000E+02    Q5          0.0000E+00    Q6          0.0000E+00
    Q7          9.2736E+02
Binary Variables
    BV1         1.0000E+00    BV2         1.0000E+00    BV3         1.0000E+00
    BV4         1.0000E+00    BV5         0.0000E+00    BV6         0.0000E+00
    BV7         2.3184E-02
    Objective Function =  6.554343E+04
 
 NEXT: BRANCH FROM SUBPROBLEM           8
                 AND VARIABLE           5
    Feasible Solution Found
 SUBPROBLEM           9 IS UNFATHOMED - IT IS RELAXED
    Name          Value       Name          Value       Name          Value
Flow Variables
    Q1          1.0175E+03    Q2          1.0000E+02    Q3          1.0000E+02
    Q4          7.3000E+02    Q5          0.0000E+00    Q6          0.0000E+00
    Q7          9.2736E+02
Binary Variables
    BV1         1.0000E+00    BV2         1.0000E+00    BV3         1.0000E+00
    BV4         1.0000E+00    BV5         0.0000E+00    BV6         0.0000E+00
    BV7         2.3184E-02
    Objective Function =  6.554343E+04
 
    Feasible Solution Found
 SUBPROBLEM          10 IS UNFATHOMED - IT IS RELAXED
    Name          Value       Name          Value       Name          Value
Flow Variables
    Q1          9.9456E+02    Q2          1.0000E+02    Q3          1.0000E+02
    Q4          6.8906E+02    Q5          1.0000E+02    Q6          0.0000E+00
    Q7          9.0162E+02
Binary Variables
    BV1         1.0000E+00    BV2         1.0000E+00    BV3         1.0000E+00
    BV4         1.0000E+00    BV5         1.0000E+00    BV6         0.0000E+00
    BV7         2.2540E-02
    Objective Function =  6.774993E+04
 
 NEXT: BRANCH FROM SUBPROBLEM          10
                 AND VARIABLE           6
    Feasible Solution Found
 SUBPROBLEM          11 IS UNFATHOMED - IT IS RELAXED
    Name          Value       Name          Value       Name          Value
Flow Variables
    Q1          9.9456E+02    Q2          1.0000E+02    Q3          1.0000E+02
    Q4          6.8906E+02    Q5          1.0000E+02    Q6          0.0000E+00
    Q7          9.0162E+02
Binary Variables
    BV1         1.0000E+00    BV2         1.0000E+00    BV3         1.0000E+00
    BV4         1.0000E+00    BV5         1.0000E+00    BV6         0.0000E+00
    BV7         2.2540E-02
    Objective Function =  6.774993E+04
 
    Feasible Solution Found
 SUBPROBLEM          12 IS UNFATHOMED - IT IS RELAXED
    Name          Value       Name          Value       Name          Value
Flow Variables
    Q1          9.8581E+02    Q2          1.0000E+02    Q3          1.0000E+02
    Q4          6.6979E+02    Q5          1.0000E+02    Q6          1.0000E+02
    Q7          8.4038E+02
Binary Variables
    BV1         1.0000E+00    BV2         1.0000E+00    BV3         1.0000E+00
    BV4         1.0000E+00    BV5         1.0000E+00    BV6         1.0000E+00
    BV7         2.1010E-02
    Objective Function =  6.996180E+04
 
 NEXT: BRANCH FROM SUBPROBLEM          12
                 AND VARIABLE           7
    Feasible Solution Found
 SUBPROBLEM          13 IS FATHOMED -IT IS INTEGER AND THE NEW BEST SOLUTION
    Name          Value       Name          Value       Name          Value
Flow Variables
    Q1          8.5733E+02    Q2          1.0000E+02    Q3          1.0000E+02
    Q4          2.9333E+02    Q5          1.0000E+02    Q6          1.6514E+03
    Q7          0.0000E+00
Binary Variables
    BV1         1.0000E+00    BV2         1.0000E+00    BV3         1.0000E+00
    BV4         1.0000E+00    BV5         1.0000E+00    BV6         1.0000E+00
    BV7         0.0000E+00
    Objective Function =  7.404028E+04
 
    Feasible Solution Found
 SUBPROBLEM          14 IS FATHOMED -IT IS INTEGER AND THE NEW BEST SOLUTION
    Name          Value       Name          Value       Name          Value
Flow Variables
    Q1          9.8581E+02    Q2          1.0000E+02    Q3          1.0000E+02
    Q4          6.6979E+02    Q5          1.0000E+02    Q6          1.0000E+02
    Q7          8.4038E+02
Binary Variables
    BV1         1.0000E+00    BV2         1.0000E+00    BV3         1.0000E+00
    BV4         1.0000E+00    BV5         1.0000E+00    BV6         1.0000E+00
    BV7         1.0000E+00
    Objective Function =  7.191978E+04
 
 SUBPROBLEM          12 IS FATHOMED - ALREADY BRANCHED FROM IT ONCE
 NEXT: BRANCH FROM SUBPROBLEM          11
                 AND VARIABLE           7
    Feasible Solution Found
 SUBPROBLEM          15 IS FATHOMED -IT IS INTEGER AND INFERIOR
    Name          Value       Name          Value       Name          Value
Flow Variables
    Q1          1.0000E+02    Q2          1.0000E+02    Q3          1.0000E+02
    Q4          1.0000E+02    Q5          2.9515E+03    Q6          0.0000E+00
    Q7          0.0000E+00
Binary Variables
    BV1         1.0000E+00    BV2         1.0000E+00    BV3         1.0000E+00
    BV4         1.0000E+00    BV5         1.0000E+00    BV6         0.0000E+00
    BV7         0.0000E+00
    Objective Function =  7.702913E+04
 
    Feasible Solution Found
 SUBPROBLEM          16 IS FATHOMED -IT IS INTEGER AND THE NEW BEST SOLUTION
    Name          Value       Name          Value       Name          Value
Flow Variables
    Q1          9.9456E+02    Q2          1.0000E+02    Q3          1.0000E+02
    Q4          6.8906E+02    Q5          1.0000E+02    Q6          0.0000E+00
    Q7          9.0162E+02
Binary Variables
    BV1         1.0000E+00    BV2         1.0000E+00    BV3         1.0000E+00
    BV4         1.0000E+00    BV5         1.0000E+00    BV6         0.0000E+00
    BV7         1.0000E+00
    Objective Function =  6.970485E+04
 
 SUBPROBLEM          11 IS FATHOMED - ALREADY BRANCHED FROM IT ONCE
 SUBPROBLEM          10 IS FATHOMED - ALREADY BRANCHED FROM IT ONCE
 NEXT: BRANCH FROM SUBPROBLEM           9
                 AND VARIABLE           6
    Feasible Solution Found
 SUBPROBLEM          17 IS UNFATHOMED - IT IS RELAXED
    Name          Value       Name          Value       Name          Value
Flow Variables
    Q1          1.0175E+03    Q2          1.0000E+02    Q3          1.0000E+02
    Q4          7.3000E+02    Q5          0.0000E+00    Q6          0.0000E+00
    Q7          9.2736E+02
Binary Variables
    BV1         1.0000E+00    BV2         1.0000E+00    BV3         1.0000E+00
    BV4         1.0000E+00    BV5         0.0000E+00    BV6         0.0000E+00
    BV7         2.3184E-02
    Objective Function =  6.554343E+04
 
    Feasible Solution Found
 SUBPROBLEM          18 IS UNFATHOMED - IT IS RELAXED
    Name          Value       Name          Value       Name          Value
Flow Variables
    Q1          1.0087E+03    Q2          1.0000E+02    Q3          1.0000E+02
    Q4          7.1074E+02    Q5          0.0000E+00    Q6          1.0000E+02
    Q7          8.6613E+02
Binary Variables
    BV1         1.0000E+00    BV2         1.0000E+00    BV3         1.0000E+00
    BV4         1.0000E+00    BV5         0.0000E+00    BV6         1.0000E+00
    BV7         2.1653E-02
    Objective Function =  6.775530E+04
 
 NEXT: BRANCH FROM SUBPROBLEM          18
                 AND VARIABLE           7
    Feasible Solution Found
 SUBPROBLEM          19 IS FATHOMED -IT IS INTEGER AND INFERIOR
    Name          Value       Name          Value       Name          Value
Flow Variables
    Q1          8.7651E+02    Q2          1.0000E+02    Q3          1.0000E+02
    Q4          3.2539E+02    Q5          0.0000E+00    Q6          1.6947E+03
    Q7          0.0000E+00
Binary Variables
    BV1         1.0000E+00    BV2         1.0000E+00    BV3         1.0000E+00
    BV4         1.0000E+00    BV5         0.0000E+00    BV6         1.0000E+00
    BV7         0.0000E+00
    Objective Function =  7.193106E+04
 
    Feasible Solution Found
 SUBPROBLEM          20 IS FATHOMED -IT IS INTEGER AND INFERIOR
    Name          Value       Name          Value       Name          Value
Flow Variables
    Q1          1.0087E+03    Q2          1.0000E+02    Q3          1.0000E+02
    Q4          7.1074E+02    Q5          0.0000E+00    Q6          1.0000E+02
    Q7          8.6613E+02
Binary Variables
    BV1         1.0000E+00    BV2         1.0000E+00    BV3         1.0000E+00
    BV4         1.0000E+00    BV5         0.0000E+00    BV6         1.0000E+00
    BV7         1.0000E+00
    Objective Function =  6.971200E+04
 
 SUBPROBLEM          18 IS FATHOMED - ALREADY BRANCHED FROM IT ONCE
 NEXT: BRANCH FROM SUBPROBLEM          17
                 AND VARIABLE           7
    Feasible Solution Found
 SUBPROBLEM          21 IS FATHOMED -IT IS INTEGER AND INFERIOR
    Name          Value       Name          Value       Name          Value
Flow Variables
    Q1          1.0000E+02    Q2          1.0000E+02    Q3          1.0000E+02
    Q4          3.2304E+03    Q5          0.0000E+00    Q6          0.0000E+00
    Q7          0.0000E+00
Binary Variables
    BV1         1.0000E+00    BV2         1.0000E+00    BV3         1.0000E+00
    BV4         1.0000E+00    BV5         0.0000E+00    BV6         0.0000E+00
    BV7         0.0000E+00
    Objective Function =  7.860735E+04
 
    Feasible Solution Found
 SUBPROBLEM          22 IS FATHOMED -IT IS INTEGER AND THE NEW BEST SOLUTION
    Name          Value       Name          Value       Name          Value
Flow Variables
    Q1          1.0175E+03    Q2          1.0000E+02    Q3          1.0000E+02
    Q4          7.3000E+02    Q5          0.0000E+00    Q6          0.0000E+00
    Q7          9.2736E+02
Binary Variables
    BV1         1.0000E+00    BV2         1.0000E+00    BV3         1.0000E+00
    BV4         1.0000E+00    BV5         0.0000E+00    BV6         0.0000E+00
    BV7         1.0000E+00
    Objective Function =  6.749706E+04
 
 SUBPROBLEM          17 IS FATHOMED - ALREADY BRANCHED FROM IT ONCE
 SUBPROBLEM           9 IS FATHOMED - ALREADY BRANCHED FROM IT ONCE
 SUBPROBLEM           8 IS FATHOMED - ALREADY BRANCHED FROM IT ONCE
 NEXT: BRANCH FROM SUBPROBLEM           7
                 AND VARIABLE           5
    Feasible Solution Found
 SUBPROBLEM          23 IS UNFATHOMED - IT IS RELAXED
    Name          Value       Name          Value       Name          Value
Flow Variables
    Q1          1.0297E+02    Q2          1.0000E+02    Q3          2.0785E+03
    Q4          0.0000E+00    Q5          0.0000E+00    Q6          0.0000E+00
    Q7          7.1862E+02
Binary Variables
    BV1         1.0000E+00    BV2         1.0000E+00    BV3         1.0000E+00
    BV4         0.0000E+00    BV5         0.0000E+00    BV6         0.0000E+00
    BV7         1.7966E-02
    Objective Function =  6.603697E+04
 
    Feasible Solution Found
 SUBPROBLEM          24 IS FATHOMED - IT IS RELAXED AND INFERIOR
    Name          Value       Name          Value       Name          Value
Flow Variables
    Q1          1.3133E+02    Q2          1.0000E+02    Q3          1.9675E+03
    Q4          0.0000E+00    Q5          1.0000E+02    Q6          0.0000E+00
    Q7          7.0458E+02
Binary Variables
    BV1         1.0000E+00    BV2         1.0000E+00    BV3         1.0000E+00
    BV4         0.0000E+00    BV5         1.0000E+00    BV6         0.0000E+00
    BV7         1.7615E-02
    Objective Function =  6.810362E+04
 
 NEXT: BRANCH FROM SUBPROBLEM          23
                 AND VARIABLE           6
    Feasible Solution Found
 SUBPROBLEM          25 IS UNFATHOMED - IT IS RELAXED
    Name          Value       Name          Value       Name          Value
Flow Variables
    Q1          1.0297E+02    Q2          1.0000E+02    Q3          2.0785E+03
    Q4          0.0000E+00    Q5          0.0000E+00    Q6          0.0000E+00
    Q7          7.1862E+02
Binary Variables
    BV1         1.0000E+00    BV2         1.0000E+00    BV3         1.0000E+00
    BV4         0.0000E+00    BV5         0.0000E+00    BV6         0.0000E+00
    BV7         1.7966E-02
    Objective Function =  6.603697E+04
 
    Feasible Solution Found
 SUBPROBLEM          26 IS FATHOMED - IT IS RELAXED AND INFERIOR
    Name          Value       Name          Value       Name          Value
Flow Variables
    Q1          1.1835E+02    Q2          1.0000E+02    Q3          2.0262E+03
    Q4          0.0000E+00    Q5          0.0000E+00    Q6          1.0000E+02
    Q7          6.6290E+02
Binary Variables
    BV1         1.0000E+00    BV2         1.0000E+00    BV3         1.0000E+00
    BV4         0.0000E+00    BV5         0.0000E+00    BV6         1.0000E+00
    BV7         1.6572E-02
    Objective Function =  6.818304E+04
 
 NEXT: BRANCH FROM SUBPROBLEM          25
                 AND VARIABLE           7
    Feasible Solution Found
 SUBPROBLEM          27 IS FATHOMED -IT IS INTEGER AND INFERIOR
    Name          Value       Name          Value       Name          Value
Flow Variables
    Q1          1.0000E+02    Q2          1.0000E+02    Q3          3.4940E+03