#SEAWATER-LGR Sample Problem, BAS6 Parent file
#December, 2007
FREE
INTERNAL          1 (20I4)    -2  IBOUND layer   1
   1   1   1   1   1   1   1   1   1   1   1   1   1   1   1   1   1   1   1   1
   1   1   1   1   1   1   1   1   1  -1
   1   1   1   1   1   1   1   1   1   1   1   1   1   1   1   1   1   1   1   1
   1   1   1   1   1   1   1   1   1  -1
   1   1   1   1   1   1   1   1   1   1   1   1   1   1   1   1   1   1   1   1
   1   1   1   1   1   1   1   1   1  -1
   1   1   1   1   1   1   1   1   1   1   1   1   1   1   1   1   1   1   1   1
   1   1   1   1   1   1   1   1   1  -1
   1   1   1   1   1   1   1   1   1   1   1   1   1   1   1   1   1   1   1   1
   1   1   1   1   1   1   1   1   1  -1
   1   1   1   1   1   1   1   1   1   1   1   1   1   1   1   1   1   1   1   1
   1   1   1   1   1   1   1   1   1  -1
   1   1   1   1   1   1   1   1   1   1   1   1   1   1   1   1   1   1   1   1
   1   1   1   1   1   1   1   1   1  -1
   1   1   1   1   1   1   1   1   1   1   1   1   1   1   1   1   1   1   1   1
   1   1   1   1   1   1   1   1   1  -1
   1   1   1   1   1   1   1   1   1   1   1   1   1   1   1   1   1   1   1   1
   1   1   1   1   1   1   1   1   1  -1
   1   1   1   1   1   1   1   1   1   1   1   1   1   1   1   1   1   1   1   1
   1   1   1   1   1   1   1   1   1  -1
   1   1   1   1   1   1   1   1   1   1   1   1   1   1   1   1   1   1   1   1
   1   1   1   1   1   1   1   1   1  -1
   1   1   1   1   1   1   1   1   1   1   1   1   1   1   1   1   1   1   1   1
   1   1   1   1   1   1   1   1   1  -1
   1   1   1   1   1   1   1   1   1   1   1   1   1   1   1   1   1   1   1   1
   1   1   1   1   1   1   1   1   1  -1
   1   1   1   1   1   1   1   1   1   1   1   1   1   1   1   1   1   1   1   1
   1   1   1   1   1   1   1   1   1  -1
   1   1   1   1   1   1   1   1   1   1   1   1   1   1   1   1   1   1   1   1
   1   1   1   1   1   1   1   1   1  -1
   1   1   1   1   1   1   1   1   1   1   1   1   1   1   1   1   1   1   1   1
   1   1   1   1   1   1   1   1   1  -1
   1   1   1   1   1   1   1   1   1   1   1   1   1   1   1   1   1   1   1   1
   1   1   1   1   1   1   1   1   1  -1
   1   1   1   1   1   1   1   1   1   1   1   1   1   1   1   1   1   1   1   1
   1   1   1   1   1   1   1   1   1  -1
   1   1   1   1   1   1   1   1   1   1   1   1   1   1   1   1   1   1   1   1
   1   1   1   1   1   1   1   1   1  -1
   1   1   1   1   1   1   1   1   1   1   1   1   1   1   1   1   1   1   1   1
   1   1   1   1   1   1   1   1   1  -1
INTERNAL          1 (20I4)    -2  IBOUND layer   2
   1   1   1   1   1   1   1   1   1   1   1   1   1   1   1   1   1   1   1   1
   1   1   1   1   1   1   1   1   1  -1
   1   1   1   1   1   1   1   1   1   1   1   1   1   1   1   1   1   1   1   1
   1   1   1   1   1   1   1   1   1  -1
   1   1   1   1   1   1   1   1   1   1   1   1   1   1   1   1   1   1   1   1
   1   1   1   1   1   1   1   1   1  -1
   1   1   1   1   1   1   1   1   1   1   1   1   1   1   1   1   1   1   1   1
   1   1   1   1   1   1   1   1   1  -1
   1   1   1   1   1   1   1   1   1   1   1   1   1   1   1   1   1   1   1   1
   1   1   1   1   1   1   1   1   1  -1
   1   1   1   1   1   1   1   1   1   1   1   1   1   1   1   1   1   1   1   1
   1   1   1   1   1   1   1   1   1  -1
   1   1   1   1   1   1   1   1   1   1   1   1   1   1   1   1   1   1   1   1
   1   1   1   1   1   1   1   1   1  -1
   1   1   1   1   1   1   1   1   1   1   1   1   1   1   1   1   1   1   1   1
   1   1   1   1   1   1   1   1   1  -1
   1   1   1   1   1   1   1   1   1   1   1   1   1   1   1   1   1   1   1   1
   1   1   1   1   1   1   1   1   1  -1
   1   1   1   1   1   1   1   1   1   1   1   1   1   1   1   1   1   1   1   1
   1   1   1   1   1   1   1   1   1  -1
   1   1   1   1   1   1   1   1   1   1   1   1   1   1   1   1   1   1   1   1
   1   1   1   1   1   1   1   1   1  -1
   1   1   1   1   1   1   1   1   1   1   1   1   1   1   1   1   1   1   1   1
   1   1   1   1   1   1   1   1   1  -1
   1   1   1   1   1   1   1   1   1   1   1   1   1   1   1   1   1   1   1   1
   1   1   1   1   1   1   1   1   1  -1
   1   1   1   1   1   1   1   1   1   1   1   1   1   1   1   1   1   1   1   1
   1   1   1   1   1   1   1   1   1  -1
   1   1   1   1   1   1   1   1   1   1   1   1   1   1   1   1   1   1   1   1
   1   1   1   1   1   1   1   1   1  -1
   1   1   1   1   1   1   1   1   1   1   1   1   1   1   1   1   1   1   1   1
   1   1   1   1   1   1   1   1   1  -1
   1   1   1   1   1   1   1   1   1   1   1   1   1   1   1   1   1   1   1   1
   1   1   1   1   1   1   1   1   1  -1
   1   1   1   1   1   1   1   1   1   1   1   1   1   1   1   1   1   1   1   1
   1   1   1   1   1   1   1   1   1  -1
   1   1   1   1   1   1   1   1   1   1   1   1   1   1   1   1   1   1   1   1
   1   1   1   1   1   1   1   1   1  -1
   1   1   1   1   1   1   1   1   1   1   1   1   1   1   1   1   1   1   1   1
   1   1   1   1   1   1   1   1   1  -1
 0.000E+00  HNOFLO
INTERNAL   1.000000E+00 (10F13.0)   -1  Initial Head layer   1
 2.000000E+01 1.000000E+01 1.000000E+01 1.000000E+01 1.000000E+01 1.000000E+01 1.000000E+01 1.000000E+01 1.000000E+01 1.000000E+01
 1.000000E+01 1.000000E+01 1.000000E+01 1.000000E+01 1.000000E+01 1.000000E+01 1.000000E+01 1.000000E+01 1.000000E+01 1.000000E+01
 1.000000E+01 1.000000E+01 1.000000E+01 1.000000E+01 1.000000E+01 1.000000E+01 1.000000E+01 1.000000E+01 1.000000E+01 0.000000E+01
 2.000000E+01 1.000000E+01 1.000000E+01 1.000000E+01 1.000000E+01 1.000000E+01 1.000000E+01 1.000000E+01 1.000000E+01 1.000000E+01
 1.000000E+01 1.000000E+01 1.000000E+01 1.000000E+01 1.000000E+01 1.000000E+01 1.000000E+01 1.000000E+01 1.000000E+01 1.000000E+01
 1.000000E+01 1.000000E+01 1.000000E+01 1.000000E+01 1.000000E+01 1.000000E+01 1.000000E+01 1.000000E+01 1.000000E+01 0.000000E+01
 2.000000E+01 1.000000E+01 1.000000E+01 1.000000E+01 1.000000E+01 1.000000E+01 1.000000E+01 1.000000E+01 1.000000E+01 1.000000E+01
 1.000000E+01 1.000000E+01 1.000000E+01 1.000000E+01 1.000000E+01 1.000000E+01 1.000000E+01 1.000000E+01 1.000000E+01 1.000000E+01
 1.000000E+01 1.000000E+01 1.000000E+01 1.000000E+01 1.000000E+01 1.000000E+01 1.000000E+01 1.000000E+01 1.000000E+01 0.000000E+01
 2.000000E+01 1.000000E+01 1.000000E+01 1.000000E+01 1.000000E+01 1.000000E+01 1.000000E+01 1.000000E+01 1.000000E+01 1.000000E+01
 1.000000E+01 1.000000E+01 1.000000E+01 1.000000E+01 1.000000E+01 1.000000E+01 1.000000E+01 1.000000E+01 1.000000E+01 1.000000E+01
 1.000000E+01 1.000000E+01 1.000000E+01 1.000000E+01 1.000000E+01 1.000000E+01 1.000000E+01 1.000000E+01 1.000000E+01 0.000000E+01
 2.000000E+01 1.000000E+01 1.000000E+01 1.000000E+01 1.000000E+01 1.000000E+01 1.000000E+01 1.000000E+01 1.000000E+01 1.000000E+01
 1.000000E+01 1.000000E+01 1.000000E+01 1.000000E+01 1.000000E+01 1.000000E+01 1.000000E+01 1.000000E+01 1.000000E+01 1.000000E+01
 1.000000E+01 1.000000E+01 1.000000E+01 1.000000E+01 1.000000E+01 1.000000E+01 1.000000E+01 1.000000E+01 1.000000E+01 0.000000E+01
 2.000000E+01 1.000000E+01 1.000000E+01 1.000000E+01 1.000000E+01 1.000000E+01 1.000000E+01 1.000000E+01 1.000000E+01 1.000000E+01
 1.000000E+01 1.000000E+01 1.000000E+01 1.000000E+01 1.000000E+01 1.000000E+01 1.000000E+01 1.000000E+01 1.000000E+01 1.000000E+01
 1.000000E+01 1.000000E+01 1.000000E+01 1.000000E+01 1.000000E+01 1.000000E+01 1.000000E+01 1.000000E+01 1.000000E+01 0.000000E+01
 2.000000E+01 1.000000E+01 1.000000E+01 1.000000E+01 1.000000E+01 1.000000E+01 1.000000E+01 1.000000E+01 1.000000E+01 1.000000E+01
 1.000000E+01 1.000000E+01 1.000000E+01 1.000000E+01 1.000000E+01 1.000000E+01 1.000000E+01 1.000000E+01 1.000000E+01 1.000000E+01
 1.000000E+01 1.000000E+01 1.000000E+01 1.000000E+01 1.000000E+01 1.000000E+01 1.000000E+01 1.000000E+01 1.000000E+01 0.000000E+01
 2.000000E+01 1.000000E+01 1.000000E+01 1.000000E+01 1.000000E+01 1.000000E+01 1.000000E+01 1.000000E+01 1.000000E+01 1.000000E+01
 1.000000E+01 1.000000E+01 1.000000E+01 1.000000E+01 1.000000E+01 1.000000E+01 1.000000E+01 1.000000E+01 1.000000E+01 1.000000E+01
 1.000000E+01 1.000000E+01 1.000000E+01 1.000000E+01 1.000000E+01 1.000000E+01 1.000000E+01 1.000000E+01 1.000000E+01 0.000000E+01
 2.000000E+01 1.000000E+01 1.000000E+01 1.000000E+01 1.000000E+01 1.000000E+01 1.000000E+01 1.000000E+01 1.000000E+01 1.000000E+01
 1.000000E+01 1.000000E+01 1.000000E+01 1.000000E+01 1.000000E+01 1.000000E+01 1.000000E+01 1.000000E+01 1.000000E+01 1.000000E+01
 1.000000E+01 1.000000E+01 1.000000E+01 1.000000E+01 1.000000E+01 1.000000E+01 1.000000E+01 1.000000E+01 1.000000E+01 0.000000E+01
 2.000000E+01 1.000000E+01 1.000000E+01 1.000000E+01 1.000000E+01 1.000000E+01 1.000000E+01 1.000000E+01 1.000000E+01 1.000000E+01
 1.000000E+01 1.000000E+01 1.000000E+01 1.000000E+01 1.000000E+01 1.000000E+01 1.000000E+01 1.000000E+01 1.000000E+01 1.000000E+01
 1.000000E+01 1.000000E+01 1.000000E+01 1.000000E+01 1.000000E+01 1.000000E+01 1.000000E+01 1.000000E+01 1.000000E+01 0.000000E+01
 2.000000E+01 1.000000E+01 1.000000E+01 1.000000E+01 1.000000E+01 1.000000E+01 1.000000E+01 1.000000E+01 1.000000E+01 1.000000E+01
 1.000000E+01 1.000000E+01 1.000000E+01 1.000000E+01 1.000000E+01 1.000000E+01 1.000000E+01 1.000000E+01 1.000000E+01 1.000000E+01
 1.000000E+01 1.000000E+01 1.000000E+01 1.000000E+01 1.000000E+01 1.000000E+01 1.000000E+01 1.000000E+01 1.000000E+01 0.000000E+01
 2.000000E+01 1.000000E+01 1.000000E+01 1.000000E+01 1.000000E+01 1.000000E+01 1.000000E+01 1.000000E+01 1.000000E+01 1.000000E+01
 1.000000E+01 1.000000E+01 1.000000E+01 1.000000E+01 1.000000E+01 1.000000E+01 1.000000E+01 1.000000E+01 1.000000E+01 1.000000E+01
 1.000000E+01 1.000000E+01 1.000000E+01 1.000000E+01 1.000000E+01 1.000000E+01 1.000000E+01 1.000000E+01 1.000000E+01 0.000000E+01
 2.000000E+01 1.000000E+01 1.000000E+01 1.000000E+01 1.000000E+01 1.000000E+01 1.000000E+01 1.000000E+01 1.000000E+01 1.000000E+01
 1.000000E+01 1.000000E+01 1.000000E+01 1.000000E+01 1.000000E+01 1.000000E+01 1.000000E+01 1.000000E+01 1.000000E+01 1.000000E+01
 1.000000E+01 1.000000E+01 1.000000E+01 1.000000E+01 1.000000E+01 1.000000E+01 1.000000E+01 1.000000E+01 1.000000E+01 0.000000E+01
 2.000000E+01 1.000000E+01 1.000000E+01 1.000000E+01 1.000000E+01 1.000000E+01 1.000000E+01 1.000000E+01 1.000000E+01 1.000000E+01
 1.000000E+01 1.000000E+01 1.000000E+01 1.000000E+01 1.000000E+01 1.000000E+01 1.000000E+01 1.000000E+01 1.000000E+01 1.000000E+01
 1.000000E+01 1.000000E+01 1.000000E+01 1.000000E+01 1.000000E+01 1.000000E+01 1.000000E+01 1.000000E+01 1.000000E+01 0.000000E+01
 2.000000E+01 1.000000E+01 1.000000E+01 1.000000E+01 1.000000E+01 1.000000E+01 1.000000E+01 1.000000E+01 1.000000E+01 1.000000E+01
 1.000000E+01 1.000000E+01 1.000000E+01 1.000000E+01 1.000000E+01 1.000000E+01 1.000000E+01 1.000000E+01 1.000000E+01 1.000000E+01
 1.000000E+01 1.000000E+01 1.000000E+01 1.000000E+01 1.000000E+01 1.000000E+01 1.000000E+01 1.000000E+01 1.000000E+01 0.000000E+01
 2.000000E+01 1.000000E+01 1.000000E+01 1.000000E+01 1.000000E+01 1.000000E+01 1.000000E+01 1.000000E+01 1.000000E+01 1.000000E+01
 1.000000E+01 1.000000E+01 1.000000E+01 1.000000E+01 1.000000E+01 1.000000E+01 1.000000E+01 1.000000E+01 1.000000E+01 1.000000E+01
 1.000000E+01 1.000000E+01 1.000000E+01 1.000000E+01 1.000000E+01 1.000000E+01 1.000000E+01 1.000000E+01 1.000000E+01 0.000000E+01
 2.000000E+01 1.000000E+01 1.000000E+01 1.000000E+01 1.000000E+01 1.000000E+01 1.000000E+01 1.000000E+01 1.000000E+01 1.000000E+01
 1.000000E+01 1.000000E+01 1.000000E+01 1.000000E+01 1.000000E+01 1.000000E+01 1.000000E+01 1.000000E+01 1.000000E+01 1.000000E+01
 1.000000E+01 1.000000E+01 1.000000E+01 1.000000E+01 1.000000E+01 1.000000E+01 1.000000E+01 1.000000E+01 1.000000E+01 0.000000E+01
 2.000000E+01 1.000000E+01 1.000000E+01 1.000000E+01 1.000000E+01 1.000000E+01 1.000000E+01 1.000000E+01 1.000000E+01 1.000000E+01
 1.000000E+01 1.000000E+01 1.000000E+01 1.000000E+01 1.000000E+01 1.000000E+01 1.000000E+01 1.000000E+01 1.000000E+01 1.000000E+01
 1.000000E+01 1.000000E+01 1.000000E+01 1.000000E+01 1.000000E+01 1.000000E+01 1.000000E+01 1.000000E+01 1.000000E+01 0.000000E+01
 2.000000E+01 1.000000E+01 1.000000E+01 1.000000E+01 1.000000E+01 1.000000E+01 1.000000E+01 1.000000E+01 1.000000E+01 1.000000E+01
 1.000000E+01 1.000000E+01 1.000000E+01 1.000000E+01 1.000000E+01 1.000000E+01 1.000000E+01 1.000000E+01 1.000000E+01 1.000000E+01
 1.000000E+01 1.000000E+01 1.000000E+01 1.000000E+01 1.000000E+01 1.000000E+01 1.000000E+01 1.000000E+01 1.000000E+01 0.000000E+01
 2.000000E+01 1.000000E+01 1.000000E+01 1.000000E+01 1.000000E+01 1.000000E+01 1.000000E+01 1.000000E+01 1.000000E+01 1.000000E+01
 1.000000E+01 1.000000E+01 1.000000E+01 1.000000E+01 1.000000E+01 1.000000E+01 1.000000E+01 1.000000E+01 1.000000E+01 1.000000E+01
 1.000000E+01 1.000000E+01 1.000000E+01 1.000000E+01 1.000000E+01 1.000000E+01 1.000000E+01 1.000000E+01 1.000000E+01 0.000000E+01
INTERNAL   1.000000E+00 (10F13.0)   -1  Initial Head layer   2
 2.000000E+01 1.000000E+01 1.000000E+01 1.000000E+01 1.000000E+01 1.000000E+01 1.000000E+01 1.000000E+01 1.000000E+01 1.000000E+01
 1.000000E+01 1.000000E+01 1.000000E+01 1.000000E+01 1.000000E+01 1.000000E+01 1.000000E+01 1.000000E+01 1.000000E+01 1.000000E+01
 1.000000E+01 1.000000E+01 1.000000E+01 1.000000E+01 1.000000E+01 1.000000E+01 1.000000E+01 1.000000E+01 0.000000E+01 0.000000E+01
 2.000000E+01 1.000000E+01 1.000000E+01 1.000000E+01 1.000000E+01 1.000000E+01 1.000000E+01 1.000000E+01 1.000000E+01 1.000000E+01
 1.000000E+01 1.000000E+01 1.000000E+01 1.000000E+01 1.000000E+01 1.000000E+01 1.000000E+01 1.000000E+01 1.000000E+01 1.000000E+01
 1.000000E+01 1.000000E+01 1.000000E+01 1.000000E+01 1.000000E+01 1.000000E+01 1.000000E+01 1.000000E+01 0.000000E+01 0.000000E+01
 2.000000E+01 1.000000E+01 1.000000E+01 1.000000E+01 1.000000E+01 1.000000E+01 1.000000E+01 1.000000E+01 1.000000E+01 1.000000E+01
 1.000000E+01 1.000000E+01 1.000000E+01 1.000000E+01 1.000000E+01 1.000000E+01 1.000000E+01 1.000000E+01 1.000000E+01 1.000000E+01
 1.000000E+01 1.000000E+01 1.000000E+01 1.000000E+01 1.000000E+01 1.000000E+01 1.000000E+01 1.000000E+01 0.000000E+01 0.000000E+01
 2.000000E+01 1.000000E+01 1.000000E+01 1.000000E+01 1.000000E+01 1.000000E+01 1.000000E+01 1.000000E+01 1.000000E+01 1.000000E+01
 1.000000E+01 1.000000E+01 1.000000E+01 1.000000E+01 1.000000E+01 1.000000E+01 1.000000E+01 1.000000E+01 1.000000E+01 1.000000E+01
 1.000000E+01 1.000000E+01 1.000000E+01 1.000000E+01 1.000000E+01 1.000000E+01 1.000000E+01 1.000000E+01 0.000000E+01 0.000000E+01
 2.000000E+01 1.000000E+01 1.000000E+01 1.000000E+01 1.000000E+01 1.000000E+01 1.000000E+01 1.000000E+01 1.000000E+01 1.000000E+01
 1.000000E+01 1.000000E+01 1.000000E+01 1.000000E+01 1.000000E+01 1.000000E+01 1.000000E+01 1.000000E+01 1.000000E+01 1.000000E+01
 1.000000E+01 1.000000E+01 1.000000E+01 1.000000E+01 1.000000E+01 1.000000E+01 1.000000E+01 1.000000E+01 0.000000E+01 0.000000E+01
 2.000000E+01 1.000000E+01 1.000000E+01 1.000000E+01 1.000000E+01 1.000000E+01 1.000000E+01 1.000000E+01 1.000000E+01 1.000000E+01
 1.000000E+01 1.000000E+01 1.000000E+01 1.000000E+01 1.000000E+01 1.000000E+01 1.000000E+01 1.000000E+01 1.000000E+01 1.000000E+01
 1.000000E+01 1.000000E+01 1.000000E+01 1.000000E+01 1.000000E+01 1.000000E+01 1.000000E+01 1.000000E+01 0.000000E+01 0.000000E+01
 2.000000E+01 1.000000E+01 1.000000E+01 1.000000E+01 1.000000E+01 1.000000E+01 1.000000E+01 1.000000E+01 1.000000E+01 1.000000E+01
 1.000000E+01 1.000000E+01 1.000000E+01 1.000000E+01 1.000000E+01 1.000000E+01 1.000000E+01 1.000000E+01 1.000000E+01 1.000000E+01
 1.000000E+01 1.000000E+01 1.000000E+01 1.000000E+01 1.000000E+01 1.000000E+01 1.000000E+01 1.000000E+01 0.000000E+01 0.000000E+01
 2.000000E+01 1.000000E+01 1.000000E+01 1.000000E+01 1.000000E+01 1.000000E+01 1.000000E+01 1.000000E+01 1.000000E+01 1.000000E+01
 1.000000E+01 1.000000E+01 1.000000E+01 1.000000E+01 1.000000E+01 1.000000E+01 1.000000E+01 1.000000E+01 1.000000E+01 1.000000E+01
 1.000000E+01 1.000000E+01 1.000000E+01 1.000000E+01 1.000000E+01 1.000000E+01 1.000000E+01 1.000000E+01 0.000000E+01 0.000000E+01
 2.000000E+01 1.000000E+01 1.000000E+01 1.000000E+01 1.000000E+01 1.000000E+01 1.000000E+01 1.000000E+01 1.000000E+01 1.000000E+01
 1.000000E+01 1.000000E+01 1.000000E+01 1.000000E+01 1.000000E+01 1.000000E+01 1.000000E+01 1.000000E+01 1.000000E+01 1.000000E+01
 1.000000E+01 1.000000E+01 1.000000E+01 1.000000E+01 1.000000E+01 1.000000E+01 1.000000E+01 1.000000E+01 0.000000E+01 0.000000E+01
 2.000000E+01 1.000000E+01 1.000000E+01 1.000000E+01 1.000000E+01 1.000000E+01 1.000000E+01 1.000000E+01 1.000000E+01 1.000000E+01
 1.000000E+01 1.000000E+01 1.000000E+01 1.000000E+01 1.000000E+01 1.000000E+01 1.000000E+01 1.000000E+01 1.000000E+01 1.000000E+01
 1.000000E+01 1.000000E+01 1.000000E+01 1.000000E+01 1.000000E+01 1.000000E+01 1.000000E+01 1.000000E+01 0.000000E+01 0.000000E+01
 2.000000E+01 1.000000E+01 1.000000E+01 1.000000E+01 1.000000E+01 1.000000E+01 1.000000E+01 1.000000E+01 1.000000E+01 1.000000E+01
 1.000000E+01 1.000000E+01 1.000000E+01 1.000000E+01 1.000000E+01 1.000000E+01 1.000000E+01 1.000000E+01 1.000000E+01 1.000000E+01
 1.000000E+01 1.000000E+01 1.000000E+01 1.000000E+01 1.000000E+01 1.000000E+01 1.000000E+01 1.000000E+01 0.000000E+01 0.000000E+01
 2.000000E+01 1.000000E+01 1.000000E+01 1.000000E+01 1.000000E+01 1.000000E+01 1.000000E+01 1.000000E+01 1.000000E+01 1.000000E+01
 1.000000E+01 1.000000E+01 1.000000E+01 1.000000E+01 1.000000E+01 1.000000E+01 1.000000E+01 1.000000E+01 1.000000E+01 1.000000E+01
 1.000000E+01 1.000000E+01 1.000000E+01 1.000000E+01 1.000000E+01 1.000000E+01 1.000000E+01 1.000000E+01 0.000000E+01 0.000000E+01
 2.000000E+01 1.000000E+01 1.000000E+01 1.000000E+01 1.000000E+01 1.000000E+01 1.000000E+01 1.000000E+01 1.000000E+01 1.000000E+01
 1.000000E+01 1.000000E+01 1.000000E+01 1.000000E+01 1.000000E+01 1.000000E+01 1.000000E+01 1.000000E+01 1.000000E+01 1.000000E+01
 1.000000E+01 1.000000E+01 1.000000E+01 1.000000E+01 1.000000E+01 1.000000E+01 1.000000E+01 1.000000E+01 0.000000E+01 0.000000E+01
 2.000000E+01 1.000000E+01 1.000000E+01 1.000000E+01 1.000000E+01 1.000000E+01 1.000000E+01 1.000000E+01 1.000000E+01 1.000000E+01
 1.000000E+01 1.000000E+01 1.000000E+01 1.000000E+01 1.000000E+01 1.000000E+01 1.000000E+01 1.000000E+01 1.000000E+01 1.000000E+01
 1.000000E+01 1.000000E+01 1.000000E+01 1.000000E+01 1.000000E+01 1.000000E+01 1.000000E+01 1.000000E+01 0.000000E+01 0.000000E+01
 2.000000E+01 1.000000E+01 1.000000E+01 1.000000E+01 1.000000E+01 1.000000E+01 1.000000E+01 1.000000E+01 1.000000E+01 1.000000E+01
 1.000000E+01 1.000000E+01 1.000000E+01 1.000000E+01 1.000000E+01 1.000000E+01 1.000000E+01 1.000000E+01 1.000000E+01 1.000000E+01
 1.000000E+01 1.000000E+01 1.000000E+01 1.000000E+01 1.000000E+01 1.000000E+01 1.000000E+01 1.000000E+01 0.000000E+01 0.000000E+01
 2.000000E+01 1.000000E+01 1.000000E+01 1.000000E+01 1.000000E+01 1.000000E+01 1.000000E+01 1.000000E+01 1.000000E+01 1.000000E+01
 1.000000E+01 1.000000E+01 1.000000E+01 1.000000E+01 1.000000E+01 1.000000E+01 1.000000E+01 1.000000E+01 1.000000E+01 1.000000E+01
 1.000000E+01 1.000000E+01 1.000000E+01 1.000000E+01 1.000000E+01 1.000000E+01 1.000000E+01 1.000000E+01 0.000000E+01 0.000000E+01
 2.000000E+01 1.000000E+01 1.000000E+01 1.000000E+01 1.000000E+01 1.000000E+01 1.000000E+01 1.000000E+01 1.000000E+01 1.000000E+01
 1.000000E+01 1.000000E+01 1.000000E+01 1.000000E+01 1.000000E+01 1.000000E+01 1.000000E+01 1.000000E+01 1.000000E+01 1.000000E+01
 1.000000E+01 1.000000E+01 1.000000E+01 1.000000E+01 1.000000E+01 1.000000E+01 1.000000E+01 1.000000E+01 0.000000E+01 0.000000E+01
 2.000000E+01 1.000000E+01 1.000000E+01 1.000000E+01 1.000000E+01 1.000000E+01 1.000000E+01 1.000000E+01 1.000000E+01 1.000000E+01
 1.000000E+01 1.000000E+01 1.000000E+01 1.000000E+01 1.000000E+01 1.000000E+01 1.000000E+01 1.000000E+01 1.000000E+01 1.000000E+01
 1.000000E+01 1.000000E+01 1.000000E+01 1.000000E+01 1.000000E+01 1.000000E+01 1.000000E+01 1.000000E+01 0.000000E+01 0.000000E+01
 2.000000E+01 1.000000E+01 1.000000E+01 1.000000E+01 1.000000E+01 1.000000E+01 1.000000E+01 1.000000E+01 1.000000E+01 1.000000E+01
 1.000000E+01 1.000000E+01 1.000000E+01 1.000000E+01 1.000000E+01 1.000000E+01 1.000000E+01 1.000000E+01 1.000000E+01 1.000000E+01
 1.000000E+01 1.000000E+01 1.000000E+01 1.000000E+01 1.000000E+01 1.000000E+01 1.000000E+01 1.000000E+01 0.000000E+01 0.000000E+01
 2.000000E+01 1.000000E+01 1.000000E+01 1.000000E+01 1.000000E+01 1.000000E+01 1.000000E+01 1.000000E+01 1.000000E+01 1.000000E+01
 1.000000E+01 1.000000E+01 1.000000E+01 1.000000E+01 1.000000E+01 1.000000E+01 1.000000E+01 1.000000E+01 1.000000E+01 1.000000E+01
 1.000000E+01 1.000000E+01 1.000000E+01 1.000000E+01 1.000000E+01 1.000000E+01 1.000000E+01 1.000000E+01 0.000000E+01 0.000000E+01
