#SEAWATER-LGRSTA Sample Problem, HEDCON Child file
#July, 2010
 1                                   #1-IPRN
 0  0  0  4                          #2-NHB NDD NDF NGD
 gd-3 1  8 32 1  8 38 400. 0.007 1   #6-GRADNAME (L,R,C)1 (L,R,C)2 LEN GRAD NSP 
 gd-4 2  8 32 2  8 38 400. 0.007 1
 gd-5 1 14 32 1 14 38 400. 0.007 1
 gd-6 2 14 32 2 14 38 400. 0.007 1
