#SEAWATER-LGR Sample Problem, RECH Parent file
#Recharge file for parent; child cut out
#Corners: 8/9, Sides: 2/3
#December, 2007
PARAMETER  3 
         1        -1
REC-P1   RCH   2.0000e-03  1
NONE     RCHZONE   1
REC-P2   RCH   2.0000e-03  1
NONE     RCHZONE   2
REC-P3   RCH   2.0000e-03  1
NONE     RCHZONE   3
         3         3
REC-P1
REC-P2
REC-P3
