#SEAWATER-LGR Sample Problem, VARCON Child file
#December, 2007
 1                         #1-IPRN
 W1 0.0d0  1.0d4  0.0d0    #2-FVNAME FVMIN FVMAX FVREF
 W2 0.0d0  1.0d4  0.0d0
