#SEAWATER-LGRSTA Sample Problem, HEDCON Parent file
#July, 2010
 1                               #1-IPRN
 0  0  0  4                      #2-NHB NDD NDF NGD
 gd-1 1 3 26 1 3 28 400. 0.007 1 #6-GRADNAME (L,R,C)1 (L,R,C)2 LEN GRAD NSP 
 gd-2 2 3 26 2 3 28 400. 0.007 1
 gd-7 1 17 26 1 17 28 400. 0.007 1
 gd-8 2 17 26 2 17 28 400. 0.007 1
