#SEAWATER-LGR Sample Problem, DIS-Package child file
#December, 2007
 2   25   40    1    4    0  NLAY,NROW,NCOL,NPER,ITMUNI,LENUNI
 0 0
CONSTANT   6.666667E+01  DELR
CONSTANT   6.666667E+01  DELC
CONSTANT   1.000000E+02  TOP of system          
CONSTANT   -1.000000E+01  Layer BOTM layer   1
CONSTANT   -2.000000E+01  Layer BOTM layer   2
 1.000E+00         1 1.000E+00  SS  PERLEN,NSTP,TSMULT,Ss/tr
