      MODULE GWM1HDC2
C     VERSION: 12AUG2007
      IMPLICIT NONE
      PRIVATE
      PUBLIC::HDCNAME,HDCSTATE,HDCSTATE0,HDCRHS,HDCDIR,HDCNUM,
     &        NHB,NDD,NDF,NGD
      PUBLIC::GWM1HDC2AR,GWM1HDC2OS,GWM1HDC2FP,GWM1HDC2FPR,GWM1HDC2FM,
     &        GWM1HDC2OT
C
      INTEGER, PARAMETER :: I4B = SELECTED_INT_KIND(9)
      INTEGER, PARAMETER :: I2B = SELECTED_INT_KIND(4)
      INTEGER, PARAMETER :: SP = KIND(1.0)
      INTEGER, PARAMETER :: DP = KIND(1.0D0)
C
C-----VARIABLES FOR HEAD CONSTRAINTS
      CHARACTER(LEN=10),SAVE,ALLOCATABLE::HDCNAME(:)
      REAL(DP),         SAVE,ALLOCATABLE::HDCSTATE(:),HDCSTATE0(:)
      REAL(DP),         SAVE,ALLOCATABLE::HDCRHS(:)
      INTEGER(I4B),     SAVE,ALLOCATABLE::HDCILOC(:,:),HDCJLOC(:,:),
     &                                    HDCKLOC(:,:)
      INTEGER(I4B),     SAVE,ALLOCATABLE::HDCDIR(:),HDCSP(:)
      INTEGER(I4B),     SAVE            ::HDCNUM,NHB,NDD,NDF,NGD
C
C      HDCNAME  -name of constraint 
C      HDCSTATE -array of constraint left hand side values resulting from most 
C                 recent MODFLOW simulation
C      HDCSTATE0-array used to store base constraint values during pertubation
C                 for response matrix generation
C      HDCRHS   -value of the right hand side for this constraint 
C      HDCILOC  -constraint observation point, first index
C      HDCJLOC  -constraint observation point, second index
C      HDCKLOC  -constraint observation point, third index
C                 HDCILOC, HDCJLOC, and HDCKLOC contain two entries for each 
C                 constraint.  
C                 If a head bound or drawdown constraint then the first entries are the 
C                 row, column,layer location in MODFLOW grid of the head 
C                 observation point and the second entry is ignored.  
C                 If a head difference or gradient constraint then the first and second
C                 entries are the row, column,layer location in MODFLOW grid of constraint 
C                 the first and second head observation points.  
C      HDCDIR   -flag to determine direction of inequality for this constraint
C                 1 => left hand side < right hand side
C                 2 => left hand side > right hand side
C      HDCSP    -stress period during which this constraint is active 
C      NHB      -number of head bound constraints
C      NDD      -number of drawdown constraints
C      NDF      -number of head difference constraints
C      NGD      -number of gradient constraints
C      HDCNUM   -total number of head type constraints
C
C
C-----FOR ERROR HANDLING
      INTEGER(I2B)::ISTAT  
      CHARACTER(LEN=200)::FLNM
      CHARACTER(LEN=20)::FILACT,FMTARG,ACCARG 
      INTEGER(I4B)::NDUM
      REAL(SP)::RDUM
C
      CONTAINS
C*************************************************************************
      SUBROUTINE GWM1HDC2AR(FNAME,IOUT,NPER,NROW,NCOL,NLAY,NV,NCON,NRMC)
C*************************************************************************
C     VERSION: 20FEB2005
C     PURPOSE: READ INPUT FROM THE HEAD CONSTRAINTS FILE 
C---------------------------------------------------------------------------
      USE GWM1BAS2, ONLY : BIGINF
      USE GWM1RMS2, ONLY : IREF
      INTEGER(I4B),INTENT(INOUT)::NCON,NV,NRMC
      INTEGER(I4B),INTENT(IN)::IOUT,NPER,NROW,NCOL,NLAY
      CHARACTER(LEN=200),INTENT(IN)::FNAME
      INTERFACE  
        SUBROUTINE URDCOM(IN,IOUT,LINE)
        CHARACTER*(*) LINE
        END
C
        SUBROUTINE URWORD(LINE,ICOL,ISTART,ISTOP,NCODE,N,R,IOUT,IN)
        CHARACTER*(*) LINE
        CHARACTER*20 STRING
        CHARACTER*30 RW
        CHARACTER*1 TAB
        END
C
        SUBROUTINE USTOP(STOPMESS)
        CHARACTER STOPMESS*(*)
        END
      END INTERFACE
C-----LOCAL VARIABLES
      INTEGER(I4B)::NSP
      CHARACTER(LEN=10)::TCTNM
      REAL(SP)::TBND,TLEN,TGRAD
      CHARACTER(LEN=2)::FG2
      INTEGER(I4B)::I,II,ITYPES,ITYPEF,IPRN,IR1,IC1,IL1,IR2,IC2,IL2
      INTEGER(I4B)::BYTES,LOCAT,ISTART,ISTOP,LLOC,INMS,INMF
      CHARACTER(LEN=200)::LINE
      REAL(DP), ALLOCATABLE::LEN(:),GRAD(:)
      INTEGER(I4B)::NUNOPN=99
C++++++++++++++++++++++++++++++++++++++++++++++++++++++++++++++++++++++++
C
C1----OPEN FILE
      LOCAT=NUNOPN
      WRITE(IOUT,1000,ERR=990) LOCAT,FNAME
      OPEN(UNIT=LOCAT,FILE=FNAME,ACTION='READ',ERR=999)
C
C-----CHECK FOR COMMENT LINES
      CALL URDCOM(LOCAT,IOUT,LINE)
C
C-----READ IPRN
      LLOC=1
      CALL URWORD(LINE,LLOC,ISTART,ISTOP,2,IPRN,RDUM,IOUT,LOCAT)
      IF(IPRN.NE.0 .AND. IPRN.NE.1)THEN
        WRITE(IOUT,2000,ERR=990)IPRN
        CALL USTOP(' ')
      ENDIF
C
C-----READ TOTAL NUMBER OF HEAD-TYPE CONSTRAINTS
      READ(LOCAT,*,ERR=991)NHB,NDD,NDF,NGD
      IF(NDD.GT.0)IREF=1                         ! REFERENCE SIMULATION NEEDED
C
      IF(NHB.LT.0)CALL USTOP('PROGRAM STOPPED: NHB IS NEGATIVE')
      IF(NDD.LT.0)CALL USTOP('PROGRAM STOPPED: NDD IS NEGATIVE')
      IF(NDF.LT.0)CALL USTOP('PROGRAM STOPPED: NDF IS NEGATIVE')
      IF(NGD.LT.0)CALL USTOP('PROGRAM STOPPED: NGD IS NEGATIVE')
      HDCNUM=NHB+NDD+NDF+NGD
      IF(HDCNUM.GT.0)THEN
        NCON = NCON + HDCNUM                     ! INCREMENT CONSTRAINT NUMBER
        NRMC = NRMC + HDCNUM                     ! INCREMENT RESPONSE CONSTRAINTS
        NV   = NV   + HDCNUM                     ! ADD CONSTRAINT SLACKS TO NV
C
C-----ALLOCATE SPACE FOR CONSTRAINT INFORMATION
        ALLOCATE (HDCNAME(HDCNUM),               ! ALLOCATE SPACE FOR HEAD 
     1            HDCSTATE(HDCNUM),HDCSTATE0(HDCNUM),HDCRHS(HDCNUM),
     2            HDCILOC(HDCNUM,2),HDCJLOC(HDCNUM,2),HDCKLOC(HDCNUM,2),
     3            HDCDIR(HDCNUM),HDCSP(HDCNUM),      ! CONSTRAINTS
     4            LEN(HDCNUM),GRAD(HDCNUM),STAT=ISTAT)
        IF(ISTAT.NE.0)GOTO 992
        BYTES = 10*HDCNUM + 8*3*HDCNUM + 4*8*HDCNUM
      ELSE
        RETURN                                   ! NO HEAD CONSTRAINTS 
      ENDIF
C
C-----READ HEAD-BOUND AND DRAWDOWN CONSTRAINTS
      IF(NHB+NDD.GT.0)THEN
        DO 100 I=1,NHB+NDD
          READ(LOCAT,'(A)',ERR=991)LINE
          LLOC=1
          CALL URWORD(LINE,LLOC,INMS,INMF,0,NDUM,RDUM,IOUT,LOCAT)
          CALL URWORD(LINE,LLOC,ISTART,ISTOP,2,IL1,RDUM,IOUT,LOCAT)
          CALL URWORD(LINE,LLOC,ISTART,ISTOP,2,IR1,RDUM,IOUT,LOCAT)
          CALL URWORD(LINE,LLOC,ISTART,ISTOP,2,IC1,RDUM,IOUT,LOCAT)
          CALL URWORD(LINE,LLOC,ITYPES,ITYPEF,1,NDUM,RDUM,IOUT,LOCAT)
          CALL URWORD(LINE,LLOC,ISTART,ISTOP,3,NDUM,TBND,IOUT,LOCAT)
          CALL URWORD(LINE,LLOC,ISTART,ISTOP,2,NSP,RDUM,IOUT,LOCAT)
C
C---------PROCESS THE CONSTRAINT NAME
          TCTNM=LINE(INMS:INMF)
C---------CHECK THAT CONSTRAINT NAME HAS NOT BEEN USED
          DO 110 II=1,I-1
            IF(HDCNAME(II).EQ.TCTNM)THEN
              WRITE(IOUT,3000,ERR=990)TCTNM
              CALL USTOP(' ')
            ENDIF
  110     ENDDO
          HDCNAME(I)=TCTNM                       ! STORE CONSTRAINT NAME
C
C---------PROCESS ROW, COLUMN AND LAYER NUMBER 
          IF(IR1.LT.1 .OR. IR1.GT.NROW)THEN
            WRITE(IOUT,3100,ERR=990)IR1          ! NOT A VALID ROW NUMBER 
            CALL USTOP(' ')
          ENDIF
          IF(IC1.LT.1 .OR. IC1.GT.NCOL)THEN
            WRITE(IOUT,3200,ERR=990)IC1          ! NOT A VALID COLUMN NUMBER 
            CALL USTOP(' ')
          ENDIF
          IF(IL1.LT.1 .OR. IL1.GT.NLAY)THEN
            WRITE(IOUT,3300,ERR=990)IL1          ! NOT A VALID LAYER NUMBER 
            CALL USTOP(' ')
          ENDIF
          HDCILOC(I,1)=IR1                       ! STORE ROW NUMBER 
          HDCJLOC(I,1)=IC1                       ! STORE COLUMN NUMBER 
          HDCKLOC(I,1)=IL1                       ! STORE LAYER NUMBER 
C
C---------PROCESS THE TYPE OF CONSTRAINT
          FG2=LINE(ITYPES:ITYPEF)
          IF(FG2.EQ.'LE') THEN
            HDCDIR(I) = 1
          ELSEIF(FG2.EQ.'GE') THEN
            HDCDIR(I) = 2
          ELSE
            CALL USTOP('HEAD CONSTRAINT NOT LE OR GE  ')
          ENDIF
C
C---------PROCESS BOUND AND STRESS PERIOD TO WHICH CONSTRAINT APPLIES 
          HDCRHS(I)=REAL(TBND,DP)                ! STORE RIGHT HAND SIDE
          IF(HDCRHS(I).GT.BIGINF)THEN
            WRITE(IOUT,3400,ERR=990)TCTNM,BIGINF ! RHS VALUE NOT WITHIN BOUNDS
            CALL USTOP(' ')
          ENDIF
          IF(NSP.LT.1 .OR. NSP.GT.NPER)CALL USTOP('STOP: INVALID NSP')
          HDCSP(I)=NSP                           ! STORE STRESS PERIOD
  100   ENDDO
C
C-----END OF HEAD-BOUNDS LOOP
      ENDIF
C
C-----READ DIFFERENCE CONSTRAINTS
      IF(NDF.GT.0)THEN
        DO 200 I=NHB+NDD+1,NHB+NDD+NDF
          READ(LOCAT,'(A)',ERR=991)LINE
          LLOC=1
          CALL URWORD(LINE,LLOC,INMS,INMF,0,NDUM,RDUM,IOUT,LOCAT)
          CALL URWORD(LINE,LLOC,ISTART,ISTOP,2,IL1,RDUM,IOUT,LOCAT)
          CALL URWORD(LINE,LLOC,ISTART,ISTOP,2,IR1,RDUM,IOUT,LOCAT)
          CALL URWORD(LINE,LLOC,ISTART,ISTOP,2,IC1,RDUM,IOUT,LOCAT)
          CALL URWORD(LINE,LLOC,ISTART,ISTOP,2,IL2,RDUM,IOUT,LOCAT)
          CALL URWORD(LINE,LLOC,ISTART,ISTOP,2,IR2,RDUM,IOUT,LOCAT)
          CALL URWORD(LINE,LLOC,ISTART,ISTOP,2,IC2,RDUM,IOUT,LOCAT)
          CALL URWORD(LINE,LLOC,ISTART,ISTOP,3,NDUM,TBND,IOUT,LOCAT)
          CALL URWORD(LINE,LLOC,ISTART,ISTOP,2,NSP,RDUM,IOUT,LOCAT)
C
C---------PROCESS THE CONSTRAINT NAME
          TCTNM=LINE(INMS:INMF)
C---------CHECK THAT CONSTRAINT NAME HAS NOT BEEN USED
          DO 210 II=1,I-1
            IF(HDCNAME(II).EQ.TCTNM)THEN
              WRITE(IOUT,3000,ERR=990)TCTNM
              CALL USTOP(' ')
            ENDIF
  210     ENDDO
          HDCNAME(I)=TCTNM                       ! STORE CONSTRAINT NAME
C
C---------PROCESS ROW, COLUMN AND LAYER NUMBER 
          IF(IR1.LT.1 .OR. IR1.GT.NROW)THEN
            WRITE(IOUT,3100,ERR=990)IR1          ! NOT A VALID ROW NUMBER 
            CALL USTOP(' ')
          ENDIF
          IF(IC1.LT.1 .OR. IC1.GT.NCOL)THEN
            WRITE(IOUT,3200,ERR=990)IC1          ! NOT A VALID COLUMN NUMBER 
            CALL USTOP(' ')
          ENDIF
          IF(IL1.LT.1 .OR. IL1.GT.NLAY)THEN
            WRITE(IOUT,3300,ERR=990)IL1          ! NOT A VALID LAYER NUMBER
            CALL USTOP(' ')
          ENDIF
          IF(IR2.LT.1 .OR. IR2.GT.NROW)THEN
            WRITE(IOUT,3100,ERR=990)IR2          ! NOT A VALID ROW NUMBER 
            CALL USTOP(' ')
          ENDIF
          IF(IC2.LT.1 .OR. IC2.GT.NCOL)THEN
            WRITE(IOUT,3200,ERR=990)IC2          ! NOT A VALID COLUMN NUMBER 
            CALL USTOP(' ')
          ENDIF
          IF(IL2.LT.1 .OR. IL2.GT.NLAY)THEN
            WRITE(IOUT,3300,ERR=990)IL2          ! NOT A VALID LAYER NUMBER
            CALL USTOP(' ')
          ENDIF
          HDCILOC(I,1)=IR1                       ! STORE ROW NUMBER 
          HDCJLOC(I,1)=IC1                       ! STORE COLUMN NUMBER 
          HDCKLOC(I,1)=IL1                       ! STORE LAYER NUMBER 
          HDCILOC(I,2)=IR2                       ! STORE ROW NUMBER 
          HDCJLOC(I,2)=IC2                       ! STORE COLUMN NUMBER 
          HDCKLOC(I,2)=IL2                       ! STORE LAYER NUMBER 
C
C---------PROCESS BOUND AND STRESS PERIOD TO WHICH CONSTRAINT APPLIES 
          HDCRHS(I)=REAL(TBND,DP)                ! STORE RIGHT HAND SIDE
          IF(HDCRHS(I).GT.BIGINF)THEN
            WRITE(IOUT,3400,ERR=990)TCTNM,BIGINF ! RHS VALUE NOT WITHIN BOUNDS
            CALL USTOP(' ')
          ENDIF
          IF(NSP.LT.1 .OR. NSP.GT.NPER)CALL USTOP('STOP: INVALID NSP')
          HDCSP(I)=NSP                           ! STORE STRESS PERIOD
C
          HDCDIR(I)=2                            ! ONLY GE TYPE USED
  200   ENDDO
C
C-----END OF HEAD-DIFFERENCE LOOP
      ENDIF
C
C-----READ GRADIENT CONSTRAINTS
      IF(NGD.GT.0)THEN
        DO 300 I=NHB+NDD+NDF+1,NHB+NDD+NDF+NGD
          READ(LOCAT,'(A)',ERR=991)LINE
          LLOC=1
          CALL URWORD(LINE,LLOC,INMS,INMF,0,NDUM,RDUM,IOUT,LOCAT)
          CALL URWORD(LINE,LLOC,ISTART,ISTOP,2,IL1,RDUM,IOUT,LOCAT)
          CALL URWORD(LINE,LLOC,ISTART,ISTOP,2,IR1,RDUM,IOUT,LOCAT)
          CALL URWORD(LINE,LLOC,ISTART,ISTOP,2,IC1,RDUM,IOUT,LOCAT)
          CALL URWORD(LINE,LLOC,ISTART,ISTOP,2,IL2,RDUM,IOUT,LOCAT)
          CALL URWORD(LINE,LLOC,ISTART,ISTOP,2,IR2,RDUM,IOUT,LOCAT)
          CALL URWORD(LINE,LLOC,ISTART,ISTOP,2,IC2,RDUM,IOUT,LOCAT)
          CALL URWORD(LINE,LLOC,ISTART,ISTOP,3,NDUM,TLEN,IOUT,LOCAT)
          CALL URWORD(LINE,LLOC,ISTART,ISTOP,3,NDUM,TGRAD,IOUT,LOCAT)
          CALL URWORD(LINE,LLOC,ISTART,ISTOP,2,NSP,RDUM,IOUT,LOCAT)
C
C---------PROCESS THE CONSTRAINT NAME
          TCTNM=LINE(INMS:INMF)
C---------CHECK THAT CONSTRAINT NAME HAS NOT BEEN USED
          DO 310 II=1,I-1
            IF(HDCNAME(II).EQ.TCTNM)THEN
              WRITE(IOUT,3000,ERR=990)TCTNM
              CALL USTOP(' ')
            ENDIF
  310     ENDDO
          HDCNAME(I)=TCTNM                       ! STORE CONSTRAINT NAME
C
C---------PROCESS ROW, COLUMN AND LAYER NUMBER 
          IF(IR1.LT.1 .OR. IR1.GT.NROW)THEN
            WRITE(IOUT,3100,ERR=990)IR1          ! NOT A VALID ROW NUMBER 
            CALL USTOP(' ')
          ENDIF
          IF(IC1.LT.1 .OR. IC1.GT.NCOL)THEN
            WRITE(IOUT,3200,ERR=990)IC1          ! NOT A VALID COLUMN NUMBER 
            CALL USTOP(' ')
          ENDIF
          IF(IL1.LT.1 .OR. IL1.GT.NLAY)THEN
            WRITE(IOUT,3300,ERR=990)IL1          ! NOT A VALID LAYER NUMBER
            CALL USTOP(' ')
          ENDIF
          IF(IR2.LT.1 .OR. IR2.GT.NROW)THEN
            WRITE(IOUT,3100,ERR=990)IR2          ! NOT A VALID ROW NUMBER 
            CALL USTOP(' ')
          ENDIF
          IF(IC2.LT.1 .OR. IC2.GT.NCOL)THEN
            WRITE(IOUT,3200,ERR=990)IC2          ! NOT A VALID COLUMN NUMBER 
            CALL USTOP(' ')
          ENDIF
          IF(IL2.LT.1 .OR. IL2.GT.NLAY)THEN
            WRITE(IOUT,3300,ERR=990)IL2          ! NOT A VALID LAYER NUMBER
            CALL USTOP(' ')
          ENDIF
          HDCILOC(I,1)=IR1                       ! STORE ROW NUMBER 
          HDCJLOC(I,1)=IC1                       ! STORE COLUMN NUMBER 
          HDCKLOC(I,1)=IL1                       ! STORE LAYER NUMBER 
          HDCILOC(I,2)=IR2                       ! STORE ROW NUMBER 
          HDCJLOC(I,2)=IC2                       ! STORE COLUMN NUMBER 
          HDCKLOC(I,2)=IL2                       ! STORE LAYER NUMBER 
C
C---------PROCESS BOUND AND STRESS PERIOD TO WHICH CONSTRAINT APPLIES 
          LEN(I) =REAL(TLEN,DP)                  ! LOCAL STORAGE FOR OUTPUT
          GRAD(I)=REAL(TGRAD,DP)                 ! LOCAL STORAGE FOR OUTPUT
          TBND=TLEN*TGRAD                        ! CONVERT LEN * GRAD TO RHS
          HDCRHS(I)=REAL(TBND,DP)                ! STORE RIGHT HAND SIDE
          IF(HDCRHS(I).GT.BIGINF)THEN
            WRITE(IOUT,3400,ERR=990)TCTNM,BIGINF ! RHS VALUE NOT WITHIN BOUNDS
            CALL USTOP(' ')
          ENDIF
          IF(NSP.LT.1 .OR. NSP.GT.NPER)CALL USTOP('STOP: INVALID NSP')
          HDCSP(I)=NSP                           ! STORE STRESS PERIOD
C
          HDCDIR(I)=2                            ! ONLY GE TYPE USED
C
  300   ENDDO
C
C----END OF GRADIENT LOOP
      ENDIF
C
C----WRITE THE INFORMATION TO THE OUTPUT FILE
      IF(IPRN.EQ.1)THEN
        IF(NHB.GT.0)THEN
          WRITE(IOUT,4000,ERR=990)
          DO 410 I=1,NHB
            IF(HDCDIR(I).EQ.1)THEN
               WRITE(IOUT,4010,ERR=990)I,HDCNAME(I),HDCKLOC(I,1),
     1                  HDCILOC(I,1),HDCJLOC(I,1),'<',HDCRHS(I),HDCSP(I)
            ENDIF
            IF(HDCDIR(I).EQ.2)THEN
              WRITE(IOUT,4010,ERR=990)I,HDCNAME(I),HDCKLOC(I,1),
     1                  HDCILOC(I,1),HDCJLOC(I,1),'>',HDCRHS(I),HDCSP(I)
            ENDIF
  410     ENDDO
        ENDIF
        IF(NDD.GT.0)THEN
          WRITE(IOUT,4100,ERR=990)
          DO 420 I=NHB+1,NHB+NDD
            IF(HDCDIR(I).EQ.1)THEN
              WRITE(IOUT,4010,ERR=990)I,HDCNAME(I),HDCKLOC(I,1),
     1                  HDCILOC(I,1),HDCJLOC(I,1),'<',HDCRHS(I),HDCSP(I)
            ENDIF
            IF(HDCDIR(I).EQ.2)THEN
              WRITE(IOUT,4010,ERR=990)I,HDCNAME(I),HDCKLOC(I,1),
     1                  HDCILOC(I,1),HDCJLOC(I,1),'>',HDCRHS(I),HDCSP(I)
            ENDIF
  420     ENDDO
        ENDIF
        IF(NDF.GT.0)THEN
          WRITE(IOUT,4200,ERR=990)
          DO 430 I=(NHB+NDD)+1,(NHB+NDD)+NDF
              WRITE(IOUT,4210,ERR=990)I,HDCNAME(I),HDCKLOC(I,1),
     1              HDCILOC(I,1),HDCJLOC(I,1),HDCKLOC(I,2),HDCILOC(I,2),
     2              HDCJLOC(I,2),HDCRHS(I),HDCSP(I)

  430     ENDDO
        ENDIF
        IF(NGD.GT.0)THEN
          WRITE(IOUT,4300,ERR=990)
          DO 440 I=(NHB+NDD+NDF)+1,(NHB+NDD+NDF)+NGD
              WRITE(IOUT,4310,ERR=990)I,HDCNAME(I),HDCKLOC(I,1),
     1              HDCILOC(I,1),HDCJLOC(I,1),HDCKLOC(I,2),HDCILOC(I,2),
     2              HDCJLOC(I,2),LEN(I),GRAD(I),HDCSP(I)

  440     ENDDO
        ENDIF
      ENDIF
C
C-----DEALLOCATE LOCAL ARRAYS
      DEALLOCATE (LEN,GRAD,STAT=ISTAT)
      IF(ISTAT.NE.0)GOTO 993 
C
C-----CLOSE FILE
C-----CLOSE FILE
      WRITE(IOUT,5000)BYTES
      WRITE(IOUT,6000)
      CLOSE(UNIT=LOCAT)
C
 1000 FORMAT(1X,/1X,'OPENING HEAD CONSTRAINTS FILE',/,
     1  ' ON UNIT ',I4,':',/1X,A200)
 2000 FORMAT(1X,/1X,'PROGRAM STOPPED. IPRN MUST BE EQUAL TO 0 OR 1: ',
     1  I4)
 3000 FORMAT(1X,/1X,'PROGRAM STOPPED. CONSTRAINT NAME ',A10,' HAS',
     1  ' ALREADY BEEN USED.') 
 3100 FORMAT(1X,/1X,'PROGRAM STOPPED. ROW NUMBER FOR CELL IS OUT OF',
     1  ' BOUNDS: ',I5)
 3200 FORMAT(1X,/1X,'PROGRAM STOPPED. COLUMN NUMBER FOR CELL IS OUT',
     1  ' OF BOUNDS: ',I5)
 3300 FORMAT(1X,/1X,'PROGRAM STOPPED. LAYER NUMBER FOR CELL IS OUT',
     1  ' OF BOUNDS: ',I5)
 3400 FORMAT(1X,/1X,'PROGRAM STOPPED. CONSTRAINT ',A10,' HAS A RIGHT-',
     1  'HAND SIDE',/,' VALUE (RHS) THAT IS GREATER THAN THE',
     2  ' VALUE',/,' ASSIGNED TO MACHINE INFINITY IN GWM: ',D5.2)
 4000 FORMAT(1X,/1X,'HEAD CONSTRAINTS:',/,T44,'RIGHT-HAND',
     1  T58,'STRESS',/,T2,'NUMBER',T10,'NAME',T22,'LAY',T27,
     2  'ROW',T32,'COL',T37,'TYPE',T47,'SIDE',T58,'PERIOD',/,' --------'
     3  ,'-------------------------------------------------------')
 4010 FORMAT(1X,I5,T10,A10,T21,I4,T26,I4,T31,I4,T38,
     1  A1,T42,ES11.4,T58,I5)
 4100 FORMAT(1X,/1X,'DRAWDOWN CONSTRAINTS:',/,T44,'RIGHT-HAND',
     1  T58,'STRESS',/,T2,'NUMBER',T10,'NAME',T22,'LAY',T27,
     2  'ROW',T32,'COL',T37,'TYPE',T47,'SIDE',T58,'PERIOD',/,' --------'
     3  ,'-------------------------------------------------------')
 4200 FORMAT(1X,/1X,'HEAD-DIFFERENCE CONSTRAINTS:',/,T24,'FIRST CELL',
     1  T38,'SECOND CELL',T53,'RIGHT-HAND',T65,'STRESS',/,T2,'NUMBER',
     2  T10,'NAME',T22,'LAY',T27,'ROW',T32,'COL',T37,'LAY',T42,'ROW',
     3  T47,'COL',T56,'SIDE',T65,'PERIOD',/,' --------------',
     3  '-------------------------------------------------------')
 4210 FORMAT(1X,I5,T10,A10,T21,I4,T26,I4,T31,I4,T36,I4,T41,I4,T46,I4,
     1  T52,ES11.4,T64,I5)
 4300 FORMAT(1X,/1X,'GRADIENT CONSTRAINTS:',/,T24,'FIRST CELL',
     1  T38,'SECOND CELL',T78,'STRESS',/,T2,'NUMBER',
     2  T10,'NAME',T22,'LAY',T27,'ROW',T32,'COL',T37,'LAY',T42,'ROW',
     3  T47,'COL',T56,'LEN',T68,'GRAD',T78,'PERIOD',/,' --------',
     4  '-------------------------------------------------------',
     5  '-------------------')
 4310 FORMAT(1X,I5,T10,A10,T21,I4,T26,I4,T31,I4,T36,I4,T41,I4,T46,I4,
     1  T52,ES11.4,T65,ES11.4,T77,I5)
 5000 FORMAT(/,1X,I8,' BYTES OF MEMORY ALLOCATED TO STORE DATA FOR',
     1               ' HEAD CONSTRAINTS')
 6000 FORMAT(/,1X,'CLOSING HEAD CONSTRAINTS FILE',/)
C
      RETURN
C
C-----FOR ERROR HANDLING
  990 CONTINUE
C-----FILE-WRITING ERROR
      INQUIRE(IOUT,NAME=FLNM,FORM=FMTARG,ACCESS=ACCARG,ACTION=FILACT)
      WRITE(*,9900)TRIM(FLNM),IOUT,FMTARG,ACCARG,FILACT
 9900 FORMAT(/,1X,'*** ERROR WRITING FILE "',A,'" ON UNIT ',I5,/,
     &7X,'SPECIFIED FILE FORMAT: ',A,/
     &7X,'SPECIFIED FILE ACCESS: ',A,/
     &7X,'SPECIFIED FILE ACTION: ',A,/
     &2X,'-- STOP EXECUTION (GWM1HDC2AR)')
      CALL USTOP(' ')
C
  991 CONTINUE
C-----FILE-READING ERROR
      INQUIRE(LOCAT,NAME=FLNM,FORM=FMTARG,ACCESS=ACCARG,ACTION=FILACT)
      WRITE(*,9910)TRIM(FLNM),LOCAT,FMTARG,ACCARG,FILACT
      WRITE(IOUT,9910)TRIM(FLNM),LOCAT,FMTARG,ACCARG,FILACT
 9910 FORMAT(/,1X,'*** ERROR READING FILE "',A,'" ON UNIT ',I5,/,
     &7X,'SPECIFIED FILE FORMAT: ',A,/
     &7X,'SPECIFIED FILE ACCESS: ',A,/
     &7X,'SPECIFIED FILE ACTION: ',A,/
     &2X,'-- STOP EXECUTION (GWM1HDC2AR)')
      CALL USTOP(' ')
C
  992 CONTINUE
C-----ARRAY-ALLOCATING ERROR
      WRITE(*,9920)
 9920 FORMAT(/,1X,'*** ERROR ALLOCATING ARRAY(S)',
     &2X,'-- STOP EXECUTION (GWM1HDC2AR)')
      CALL USTOP(' ')
C
  993 CONTINUE
C-----ARRAY-DEALLOCATING ERROR
      WRITE(*,9930)
      WRITE(IOUT,9930)
 9930 FORMAT(/,1X,'*** ERROR DEALLOCATING ARRAY(S)',
     &2X,'-- STOP EXECUTION (GWM1HDC2AR)')
      CALL USTOP(' ')
C
  999 CONTINUE
C-----FILE-OPENING ERROR
      INQUIRE(LOCAT,NAME=FLNM,FORM=FMTARG,ACCESS=ACCARG,ACTION=FILACT)
      WRITE(*,9990)TRIM(FLNM),LOCAT,'OLD',FMTARG,ACCARG,FILACT
      WRITE(IOUT,9990)TRIM(FLNM),LOCAT,'OLD',FMTARG,ACCARG,
     &                 FILACT
 9990 FORMAT(/,1X,'*** ERROR OPENING FILE "',A,'" ON UNIT ',I5,/,
     &7X,'SPECIFIED FILE STATUS: ',A,/
     &7X,'SPECIFIED FILE FORMAT: ',A,/
     &7X,'SPECIFIED FILE ACCESS: ',A,/
     &7X,'SPECIFIED FILE ACTION: ',A,/
     &2X,'-- STOP EXECUTION (GWM1HDC2AR)')
      CALL USTOP(' ')
C
      END SUBROUTINE GWM1HDC2AR
C
C
C***********************************************************************
      SUBROUTINE GWM1HDC2OS(KPER)
C***********************************************************************
C     VERSION: 10AUG2007
C     PURPOSE: ASSIGN COMPUTED HEAD STATE TO STATE ARRAY
C-----------------------------------------------------------------------
      USE GWM1RMS2, ONLY :  DEWATER
      USE GLOBAL,      ONLY: NCOL,NROW,NLAY,HNEW
      USE GWFBCFMODULE, ONLY: HDRY
      INTEGER(I4B),INTENT(IN)::KPER
C-----LOCAL VARIABLES
      INTEGER(I4B)::I
      REAL(DP)::STATE1,STATE2
C+++++++++++++++++++++++++++++++++++++++++++++++++++++++++++++++++++++++
C
C--- FOR HEAD BOUND CONSTRAINTS ASSIGN HEAD VALUE TO HDCSTATE
      DO 100 I=1,NHB+NDD   
        IF(HDCSP(I).EQ.KPER) THEN
          STATE1 = HNEW(HDCJLOC(I,1),HDCILOC(I,1),HDCKLOC(I,1))
          IF(REAL(STATE1,SP).EQ.HDRY)DEWATER=.TRUE.         ! CELL HAS DEWATERED
          HDCSTATE(I) = STATE1
        ENDIF
  100 ENDDO
C
C--- FOR HEAD DIFFERENCE CONSTRAINTS ASSIGN HEAD DIFFERENCE TO HDCSTATE
      DO 200 I=NHB+NDD+1,NHB+NDD + NDF+NGD
        IF(HDCSP(I).EQ.KPER) THEN
          STATE1 = HNEW(HDCJLOC(I,1),HDCILOC(I,1),HDCKLOC(I,1))
          STATE2 = HNEW(HDCJLOC(I,2),HDCILOC(I,2),HDCKLOC(I,2))
          IF(REAL(STATE1,SP).EQ.HDRY)DEWATER=.TRUE.         ! CELL HAS DEWATERED
          IF(REAL(STATE2,SP).EQ.HDRY)DEWATER=.TRUE.         ! CELL HAS DEWATERED
          HDCSTATE(I) = STATE1 - STATE2
        ENDIF
  200 ENDDO
C
      RETURN
      END SUBROUTINE GWM1HDC2OS
C
C
C***********************************************************************
      SUBROUTINE GWM1HDC2FP(RSTRT,IPERT)
C***********************************************************************
C     VERSION: 26JULY2006
C     PURPOSE - USE SIMULATION RESULTS TO COMPUTE RESPONSE MATRIX AND 
C            AUGMENTED RIGHT HAND SIDE
C-----------------------------------------------------------------------
      USE GWM1BAS2, ONLY : RMFILE
      USE GWM1DCV2, ONLY : FVBASE
      USE GWM1OBJ2, ONLY : SOLNTYP
      USE GWM1RMS2, ONLY : SLPITCNT,IBASE,IREF,IRM,DELINC,
     &                     RHSIN,RHSINF,RANGENAME,RANGENAMEF,CONTYP,NDV
C-----AMAT HAS LOCAL NAME RESMAT
      USE GWM1RMS2, ONLY : RHS,RESMAT => AMAT
      INTEGER(I4B),INTENT(INOUT)::RSTRT
      INTEGER(I4B),INTENT(IN)::IPERT
C-----LOCAL VARIABLES
      REAL(DP)::STATEN
      INTEGER(I4B)::ROW,IHDC,NPGNA,I
C+++++++++++++++++++++++++++++++++++++++++++++++++++++++++++++++++++++++
C
      IF(IPERT.EQ.-1)THEN
C-------THIS IS A REFERENCE SIMULATION
        CALL SGWM1HDC2FP                         ! MODIFY CONSTRAINTS
      ELSEIF(IPERT.EQ.0)THEN
C-------THIS IS A BASE SIMULATION
        IF(SLPITCNT.GT.0)THEN
C---------THIS IS A BASE SIMULATION FOR A LATER SLP ITERATION
        ELSEIF(.NOT.(IREF.EQ.1 .AND. IBASE.EQ.1))THEN 
C---------THIS IS EITHER THE FIRST SLP OR BASE LP SIMULATION    
          CALL SGWM1HDC2FP                       ! MODIFY CONSTRAINTS                   
        ENDIF
        IHDC = 0
        DO 100 ROW=RSTRT,RSTRT+HDCNUM-1
          IHDC = IHDC+1
C
C---------RETRIEVE THE INITIAL STATE FROM MODFLOW OUTPUT
          HDCSTATE0(IHDC) = HDCSTATE(IHDC)
C
C---------IF SAVING RESPONSE MATRIX WRITE THE INITIAL STATE TO FILE
          IF(IRM.EQ.1 .OR. IRM.EQ.4)WRITE(RMFILE)HDCSTATE0(IHDC)
C
C---------COMPUTE THE DIFFERENCE BETWEEN INITIAL STATE AND RHS
          RHS(ROW) = HDCRHS(IHDC) - HDCSTATE0(IHDC)
100     ENDDO
C
      ELSEIF(IPERT.GT.0)THEN
C-----  THIS IS A PERTURBATION SIMULATION
C
C-------COMPUTE THE RESPONSE MATRIX VALUE FOR EACH CONSTRAINT
        IHDC = 0
        DO 200 ROW=RSTRT,RSTRT+HDCNUM-1
          IHDC = IHDC+1
C
C---------COMPUTE STATE DIFFERENCE (PERTURBED STATE MINUS INITIAL STATE)
          STATEN = HDCSTATE(IHDC) - HDCSTATE0(IHDC)
C
C---------DIVIDE STATE DIFFERENCE BY THE PERTURBATION SIZE 
          RESMAT(ROW,IPERT) = STATEN/DELINC(IPERT)
C
C---------AUGMENT RIGHT HAND SIDE WITH KNOWN PERTURBATION RESPONSE TERM 
          RHS(ROW) = RHS(ROW) + RESMAT(ROW,IPERT)*FVBASE(IPERT)
C
C---------WRITE RESPONSE MATRIX ELEMENT TO DISK
          IF(IRM.EQ.1 .OR. IRM.EQ.4) WRITE(RMFILE)RESMAT(ROW,IPERT)
  200   ENDDO
C
      ENDIF
C
C-----SET NEXT STARTING LOCATION
      RSTRT = RSTRT+HDCNUM
C
      RETURN
      CONTAINS
C***********************************************************************
      SUBROUTINE SGWM1HDC2FP
C***********************************************************************
C
C  PURPOSE: USE RESULTS OF THE FIRST SIMULATION TO MODIFY CONSTRAINTS
C-----------------------------------------------------------------------
C
C-----STORE THE INITIAL RHS FOR LATER OUTPUT
      IHDC = 0
      DO 100 ROW=RSTRT,RSTRT+HDCNUM-1
        IHDC = IHDC+1
        RHSIN(ROW)= HDCRHS(IHDC)                  ! STORE THE INPUT RHS
        RANGENAME(ROW+NDV-1)=HDCNAME(IHDC)        ! LOAD FOR RANGE ANALYSIS OUTPUT
        RHSINF(ROW)= HDCRHS(IHDC)                 ! STORE THE INPUT RHS
        RANGENAMEF(ROW+NDV-1)=HDCNAME(IHDC)       ! LOAD FOR RANGE ANALYSIS OUTPUT
        IF(IHDC.GT.NHB.AND.IHDC.LE.NHB+NDD)THEN   ! DRAWDOWN CONSTRAINT
          CONTYP(ROW)=2                           ! THIS IS TRANSFORMED CONSTRAINT
        ELSE                                      ! NON-DRAWDOWN CONSTRAINT
          CONTYP(ROW)=1                           ! SET FOR RANGE OUTPUT
        ENDIF
  100 ENDDO
C
C-----FOR HEAD CONSTRAINTS, CONVERT DRAWDOWN TO HEAD BOUND
      DO 200 I=NHB+1,NHB+NDD
        IF(IRM.EQ.1 .OR. IRM.EQ.4)WRITE(RMFILE)HDCSTATE(I)! WRITE REFERENCE STATE
        HDCRHS(I) = HDCSTATE(I) - HDCRHS(I)       ! HDCRHS IS NOW MINIMUM HEAD
C------SWITCH DIRECTION OF INEQUALITY: UPPER BOUND ON DRAWDOWN
C      BECOMES LOWER BOUND ON HEAD
        IF(HDCDIR(I).EQ.1)THEN
          HDCDIR(I) = 2
        ELSEIF(HDCDIR(I).EQ.2)THEN
          HDCDIR(I) = 1
        ENDIF
  200 ENDDO
C
      RETURN
      END SUBROUTINE SGWM1HDC2FP
C
      END SUBROUTINE GWM1HDC2FP
C
C
C***********************************************************************
      SUBROUTINE GWM1HDC2FPR(RSTRT,IREAD,COL)
C***********************************************************************
C     VERSION: 25DEC2006
C     PURPOSE - READ RESPONSE MATRIX AND AUGMENTED RIGHT HAND SIDE
C-----------------------------------------------------------------------
      USE GWM1BAS2, ONLY : RMFILE
      USE GWM1DCV2, ONLY : NFVAR,NEVAR,NBVAR,FVBASE
      USE GWM1RMS2, ONLY : RHSIN,RHSINF,RANGENAME,RANGENAMEF,CONTYP,NDV
C-----AMAT HAS LOCAL NAME RESMAT 
      USE GWM1RMS2, ONLY : RESMAT => AMAT
      USE GWM1RMS2, ONLY : RHS
      INTEGER(I4B),INTENT(INOUT)::RSTRT
      INTEGER(I4B),INTENT(IN)::IREAD
      INTEGER(I4B),INTENT(IN)::COL
C-----LOCAL VARIABLES
      INTEGER(I4B)::IHDC,ROW,I
C++++++++++++++++++++++++++++++++++++++++++++++++++++++++++++++++++++++++
C
      IF(IREAD.EQ.0)THEN          
        CALL SGWM1HDC2FPR                        ! READ THE REFERENCE STATE             
        IHDC = 0
        DO 100 ROW=RSTRT,RSTRT+HDCNUM-1 
          IHDC = IHDC+1
          READ(RMFILE)HDCSTATE0(IHDC)            ! READ THE BASE STATE FROM A FILE
          RHS(ROW) = HDCRHS(IHDC) - HDCSTATE0(IHDC)
          HDCSTATE(IHDC) = HDCSTATE0(IHDC)       ! ASSIGN BASE STATE FOR OUTPUT
  100   ENDDO
      ELSEIF(IREAD.EQ.1)THEN                     ! READ RESPONSE MATRIX
        DO 200 ROW=RSTRT,RSTRT+HDCNUM-1
          READ(RMFILE)RESMAT(ROW,COL)            ! READ EACH RESPONSE COEFFICIENT
          RHS(ROW) = RHS(ROW) + RESMAT(ROW,COL)*FVBASE(COL)
  200   ENDDO
      ENDIF
      RSTRT = RSTRT+HDCNUM                       ! SET NEXT STARTING LOCATION
C
      RETURN
      CONTAINS
C***********************************************************************
      SUBROUTINE SGWM1HDC2FPR
C***********************************************************************
C