      MODULE GWM1DCV3
C     VERSION: 21MAR2008
      IMPLICIT NONE
      PRIVATE  
      PUBLIC::NFVAR,FVNAME,FVMIN,FVMAX,FVBASE,FVINI,FVRATIO,FVILOC,EVSP,
     &        FVJLOC,FVKLOC,FVNCELL,FVON,FVDIR,FVSP,EVNAME,EVMIN,EVMAX,
     &        EVBASE,EVDIR,NEVAR,BVNAME,BVBASE,BVNLIST,BVLIST,NBVAR,
     &        GRDLOCDCV,NCMAX,FVCURRENT
      PUBLIC::GWM1DCV3AR,GWM1DCV3FM,GWF2DCV3FM,GWF2DCV3BD
C
      INTEGER, PARAMETER :: I4B = SELECTED_INT_KIND(9)
      INTEGER, PARAMETER :: I2B = SELECTED_INT_KIND(4)
      INTEGER, PARAMETER :: SP = KIND(1.0)
      INTEGER, PARAMETER :: DP = KIND(1.0D0)
      INTEGER, PARAMETER :: LGT = KIND(.TRUE.)
C
C-----VARIABLES FOR FLOW DECISION VARIABLES
      INTEGER(I4B),SAVE::NFVAR,NCMAX
      CHARACTER(LEN=10),SAVE,ALLOCATABLE::FVNAME(:)
      REAL(SP),SAVE,ALLOCATABLE::FVRATIO(:,:)
      REAL(DP),SAVE,ALLOCATABLE::FVMIN(:),FVMAX(:),FVBASE(:),FVINI(:),
     &                           FVCURRENT(:)
      INTEGER(I4B),SAVE,ALLOCATABLE::FVILOC(:,:),FVJLOC(:,:),FVKLOC(:,:)
      INTEGER(I4B),SAVE,ALLOCATABLE::FVNCELL(:),FVON(:),FVDIR(:)
      LOGICAL(LGT),SAVE,ALLOCATABLE ::FVSP(:,:)
C
C      NFVAR    -number of flow-rate variables
C      NCMAX    -maximum number of cells associated with any flow-rate variable
C      FVNAME   -name of flow-rate variable (10 digits)
C      FVMIN    -lower bound for flow-rate variable
C      FVMAX    -upper bound for flow-rate variable
C      FVBASE   -current value of flow-rate variable during solution process 
C      FVCURRENT-flow-rate variable storage used by GWMPLL
C      FVINI    -initial value of flow-rate variables
C      FVRATIO  -fraction of total flow applied at each cell associated with
C                  the flow-rate variable
C      FVILOC(I,J), FVJLOC(I,J), FVKLOC(I,J)
C               -i,j,k location in MODFLOW grid of the jth cell associated  
C                  with the ith flow-rate variable
C      FVNCELL  -number of cells associated with the flow-rate variable
C      FVON     -flag for availability of flow-rate variable (>0-yes, =<0-no) 
C      FVDIR    -flag for direction of flow for flow-rate variable 
C                 1 => inject, 2 => withdrawal
C      FVSP     -logical array (NFVAR x # stress periods) which records if a
C                  flow-rate variable is a candidate during a stress period
C
C-----VARIABLES FOR EXTERNAL DECISION VARIABLES
      INTEGER(I4B),SAVE::NEVAR
      CHARACTER(LEN=10),SAVE,ALLOCATABLE::EVNAME(:)
      REAL(DP),SAVE,ALLOCATABLE::EVMIN(:),EVMAX(:)
      REAL(DP),SAVE,ALLOCATABLE::EVBASE(:)
      INTEGER(I4B),SAVE,ALLOCATABLE::EVDIR(:)
      LOGICAL(LGT),SAVE,ALLOCATABLE::EVSP(:,:)
C
C      NEVAR    -number of external variables
C      EVNAME   -name of external variable (10 digits)
C      EVMIN    -lower bound for external variable
C      EVMAX    -upper bound for external variable
C      EVBASE   -current value of external variable during solution process 
C      EVDIR    -code for the type of external variable
C      EVSP     -logical array (NEVAR x # stress periods) which records if a
C                  external variable is a candidate during a stress period
C
C-----VARIABLES FOR BINARY DECISION VARIABLES
      INTEGER(I4B),SAVE::NBVAR
      CHARACTER(LEN=10),SAVE,ALLOCATABLE::BVNAME(:)
      REAL(DP),SAVE,ALLOCATABLE::BVBASE(:)
      INTEGER(I4B),SAVE,ALLOCATABLE::BVNLIST(:),BVLIST(:,:)
C
C      NBVAR    -number of binary variables
C      BVNAME   -name of binary variable (10 digits)
C      BVBASE   -current value of binary variable during solution process 
C      BVNLIST  -number of variables associated with the binary variable
C      BVLIST(I,J)-index of the jth variable associated with the ith constraint
C
C-----VARIALBLE FOR MULTIPLE GRIDS
      INTEGER(I4B),SAVE,ALLOCATABLE::GRDLOCDCV(:)
C
C     GRDLOCDCV -grid on which the ith decision variable resides
C
C-----ERROR HANDLING
      INTEGER(I2B)::ISTAT  
      CHARACTER(LEN=200)::FLNM
      CHARACTER(LEN=20)::FILACT,FMTARG,ACCARG 
      INTEGER(I4B)::NDUM
      REAL(SP)::RDUM
C
      CONTAINS 
C*************************************************************************
      SUBROUTINE GWM1DCV3AR(FNAMEN,IOUT,NPER,NFVAR,NEVAR,
     &                      NBVAR,NDV,NGRIDS)
C*************************************************************************
C     VERSION: 3SEPT2008
C     PURPOSE: READ INPUT FROM THE DECISION-VARIABLE FILE 
C---------------------------------------------------------------------------
      USE GWM1BAS3, ONLY : ONE,ZERO,GWMWFILE,GWM1BAS3PS,CUTCOM
      USE GLOBAL,   ONLY: NCOL,NROW,NLAY
      INTEGER(I4B),INTENT(IN)::IOUT,NPER,NGRIDS
      INTEGER(I4B),INTENT(OUT)::NFVAR,NEVAR,NBVAR,NDV
      CHARACTER(LEN=200),INTENT(IN),DIMENSION(NGRIDS)::FNAMEN
      INTERFACE 
        SUBROUTINE URDCOM(IN,IOUT,LINE)
        CHARACTER*(*) LINE
        END
C
        SUBROUTINE URWORD(LINE,ICOL,ISTART,ISTOP,NCODE,N,R,IOUT,IN)
        CHARACTER*(*) LINE
        CHARACTER*20 STRING
        CHARACTER*30 RW
        CHARACTER*1 TAB
        END
C
        SUBROUTINE USTOP(STOPMESS)
        CHARACTER STOPMESS*(*)
        END
C 
        INTEGER FUNCTION IGETUNIT(IFIRST,MAXUNIT)
        INTEGER I,IFIRST,IOST,MAXUNIT
        LOGICAL LOP
        END        
C        
      END INTERFACE
C-----LOCAL VARIABLES
      CHARACTER(LEN=10)::TFVNAME
      REAL(SP)::TRAT
      INTEGER(I4B)::I,II,J,JJ,IR,IC,IL,NPVMAX,BYTES
      INTEGER(I4B)::LLOC,INMS,INMF,INMVS,INMVF,N,TNPV
      INTEGER(I4B)::LOCAT,ISTART,ISTOP,IPRN,IPRNG
      INTEGER(I4B),DIMENSION(NGRIDS)::NUNOPN
      INTEGER(I4B)::NC
      INTEGER(I4B)::IPSS,IPSF,IPTS,IPTF,ITYPES,ITYPEF
      CHARACTER(LEN=1)::FTYPE,FSTAT
      CHARACTER(LEN=2)::ETYPE
      LOGICAL(LGT)::NFOUND
      CHARACTER(LEN=200)::FNAME,LINE
      INTEGER(I4B),DIMENSION(NGRIDS)::NFVARG,NEVARG,NBVARG
      INTEGER(I4B)::JFVROW,JEVROW,JBVROW,G
      CHARACTER(LEN=10)::ETYPED(6)
C-----ALLOCATE TEMPORARY STORAGE UNTIL SIZE CAN BE DETERMINED
      INTEGER(I4B),ALLOCATABLE::TBVLIST(:,:)
      CHARACTER(LEN=120),ALLOCATABLE::WSP(:),ESP(:)
      INTEGER(I4B),ALLOCATABLE::GRDLOCFV(:),GRDLOCEV(:),
     &             GRDLOCBV(:)
      DATA ETYPED /'  Import  ','  Export  ','  Head    ',
     &             '  Strmflow','  Storage ','  General '/
C++++++++++++++++++++++++++++++++++++++++++++++++++++++++++++++++++++++++
C
C-----LOOP OVER ALL GRIDS TO OPEN FILES AND COUNT DECISION VARIABLES
C
      NFVARG = 0
      NEVARG = 0
      NBVARG = 0
      IPRN = -1
      ALLOCATE (GWMWFILE(NGRIDS),STAT=ISTAT)
      IF(ISTAT.NE.0)GOTO 992
      BYTES = 4*(NGRIDS)
      DO 100 G=1,NGRIDS
        GWMWFILE(G)=0
        IF(FNAMEN(G).NE.' ')THEN
C---------OPEN FILE
          NUNOPN(G)=IGETUNIT(10,200)
          LOCAT=NUNOPN(G)
          WRITE(IOUT,1000,ERR=990)LOCAT,FNAMEN(G)
          OPEN(UNIT=LOCAT,FILE=FNAMEN(G),ACTION='READ',ERR=999)
C
C---------CHECK FOR COMMENT LINES
          CALL URDCOM(LOCAT,IOUT,LINE)
C
C---------READ IPRN
          CALL CUTCOM(LINE,200)                  ! REMOVE COMMENTS FROM LINE
          LLOC=1
          CALL URWORD(LINE,LLOC,ISTART,ISTOP,2,IPRNG,RDUM,IOUT,LOCAT)
          IF(IPRNG.EQ.0 .OR. IPRNG.EQ.1)THEN
            IPRN = MAX(IPRN,IPRNG)               ! USE MOST DETAILED ECHO
          ELSE
            WRITE(IOUT,2000,ERR=990)IPRNG        ! INVALID VALUE OF IPRN
            CALL USTOP(' ')
          ENDIF
C
C---------READ GWMWFILE IF PRESENT
          CALL URWORD(LINE,LLOC,ISTART,ISTOP,2,GWMWFILE(G),RDUM,IOUT,
     &                LOCAT)
          IF(GWMWFILE(G).GT.0)WRITE(IOUT,2100,ERR=990)GWMWFILE(G)
C
C---------READ NFVAR, NEVAR, AND NBVAR
          READ(LOCAT,'(A)',ERR=991)LINE
          LLOC=1
          CALL URWORD(LINE,LLOC,ISTART,ISTOP,2,NFVARG(G),RDUM,IOUT,
     &                LOCAT)
          CALL URWORD(LINE,LLOC,ISTART,ISTOP,2,NEVARG(G),RDUM,IOUT,
     &                LOCAT)
          CALL URWORD(LINE,LLOC,ISTART,ISTOP,2,NBVARG(G),RDUM,IOUT,
     &                LOCAT)
        ENDIF
  100 ENDDO
C-----ADD VARIABLES FROM ALL GRIDS
      NFVAR=SUM(NFVARG)
      NEVAR=SUM(NEVARG)
      NBVAR=SUM(NBVARG)
      IF(NFVAR.LE.0)RETURN                       ! NO FLOW VARIABLES DEFINED
      WRITE(IOUT,3000,ERR=990)NFVAR,NEVAR
      IF(NBVAR.GE.1)THEN
        WRITE(IOUT,3010,ERR=990)NBVAR
      ELSE
        WRITE(IOUT,3020,ERR=990)
      ENDIF
C
C-----DETERMINE NCMAX FOR ALLOCATION OF STORAGE SPACE
      IF(NFVAR.GT.0)THEN
        NCMAX=0
        DO 150 G=1,NGRIDS
          IF(FNAMEN(G).NE.' ')THEN
            LOCAT=NUNOPN(G)
            DO 140 J=1,NFVARG(G)
              READ(LOCAT,'(A)',ERR=991,END=991)LINE
              LLOC=1
              CALL URWORD(LINE,LLOC,INMS,INMF,0,NDUM,RDUM,IOUT,LOCAT)
              CALL URWORD(LINE,LLOC,ISTART,ISTOP,2,NC,RDUM,IOUT,LOCAT)
              IF(NC.GT.NCMAX)NCMAX=NC
              IF(NC.GT.1)THEN
                DO 130 JJ=1,NC                   ! LOOP OVER THE MULTIPLE CELLS
                  READ(LOCAT,*,ERR=991)
  130           ENDDO
              ENDIF
  140       ENDDO
            REWIND(LOCAT)
            CALL URDCOM(LOCAT,0,LINE)            ! RE-READ COMMENTS AND IPRN
            READ(LOCAT,'(A)',ERR=991)LINE
          ENDIF  
  150   ENDDO
C
        NDV = NFVAR+NEVAR+NBVAR+1                ! NUMBER OF DECISION VARIABLES
        ALLOCATE (GRDLOCDCV(NDV-1),STAT=ISTAT)   ! GRID LOCATION STORAGE
        BYTES = BYTES + 4*(NDV-1)
        IF(ISTAT.NE.0)GOTO 992 
C
C-------ALLOCATE SPACE FOR FLOW-RATE VARIABLE INFORMATION
        ALLOCATE (FVNAME(NFVAR),FVMIN(NFVAR),FVMAX(NFVAR),FVBASE(NFVAR),
     &            FVINI(NFVAR),FVNCELL(NFVAR),FVON(NFVAR),FVDIR(NFVAR),
     &            FVSP(NFVAR,NPER),FVCURRENT(NFVAR),STAT=ISTAT) 
        IF(ISTAT.NE.0)GOTO 992 
        BYTES = BYTES + 10*NFVAR + 8*5*NFVAR + 4*3*NFVAR +(NFVAR*NPER)/8
        ALLOCATE (FVILOC(NFVAR,NCMAX),FVJLOC(NFVAR,NCMAX),
     &            FVKLOC(NFVAR,NCMAX),FVRATIO(NFVAR,NCMAX),STAT=ISTAT)
        IF(ISTAT.NE.0)GOTO 992 
        BYTES = BYTES + 4*3*(NFVAR*NCMAX) + 4*NFVAR*NCMAX
        ALLOCATE (WSP(NFVAR),GRDLOCFV(NFVAR),STAT=ISTAT) ! TEMPORARY ARRAYS
        IF(ISTAT.NE.0)GOTO 992 
C
C-------READ FLOW-RATE VARIABLE INFORMATION 
C 
        JFVROW=0
        DO 240 G=1,NGRIDS
          IF(FNAMEN(G).NE.' ')THEN
C-----------OPEN FILE
            LOCAT=NUNOPN(G)  
            DO 230 J=1+JFVROW,NFVARG(G)+JFVROW
              READ(LOCAT,'(A)',ERR=991)LINE
              LLOC=1
              CALL URWORD(LINE,LLOC,INMS,INMF,0,NDUM,RDUM,IOUT,LOCAT)
              CALL URWORD(LINE,LLOC,ISTART,ISTOP,2,NC,RDUM,IOUT,LOCAT)
              CALL URWORD(LINE,LLOC,ISTART,ISTOP,2,IL,RDUM,IOUT,LOCAT)
              CALL URWORD(LINE,LLOC,ISTART,ISTOP,2,IR,RDUM,IOUT,LOCAT)
              CALL URWORD(LINE,LLOC,ISTART,ISTOP,2,IC,RDUM,IOUT,LOCAT)
              CALL URWORD(LINE,LLOC,IPTS,IPTF,0,NDUM,RDUM,IOUT,LOCAT)
              CALL URWORD(LINE,LLOC,IPSS,IPSF,0,NDUM,RDUM,IOUT,LOCAT)
              CALL URWORD(LINE,LLOC,ITYPES,ITYPEF,0,NDUM,RDUM,
     &                    IOUT,LOCAT)
C
C------------CHECK THAT DECISION-VARIABLE NAME HAS NOT BEEN USED
              DO 200 JJ=1,J-1
                IF(LINE(INMS:INMF).EQ.FVNAME(JJ))THEN
                  WRITE(IOUT,4000,ERR=990)FVNAME(JJ)
                  CALL USTOP(' ')
                ENDIF
  200         ENDDO
              FVNAME(J)=LINE(INMS:INMF)
              GRDLOCFV(J)=G  
C-------------PROCESS NC, THE NUMBER OF CELLS FOR THIS VARIABLE
              IF(NC.LT.1)THEN
                WRITE(IOUT,4010,ERR=990)NC       ! VALUE OF NC IS INVALID
                CALL USTOP(' ')
              ENDIF
              FVNCELL(J)=NC                      ! STORE THE NUMBER OF CELLS
C
C-------------PROCESS ROW, COLUMN, LAYER LOCATIONS FOR THIS VARIABLE
              IF(NC.EQ.1)THEN
                CALL LOADDV(1)                   ! TEST INPUT AND STORE LOCATION
                FVRATIO(J,1)=1.0                 ! ONLY ONE CELL
              ELSE                               ! MULTIPLE CELLS
                TRAT=0.0
                DO 210 JJ=1,NC                   ! LOOP OVER THE MULTIPLE CELLS
                  READ(LOCAT,*,ERR=991,END=991)FVRATIO(J,JJ),IL,IR,IC
                  CALL LOADDV(JJ)                ! TEST INPUT AND STORE LOCATION
                  TRAT=FVRATIO(J,JJ)+TRAT
  210           ENDDO
                IF(REAL(TRAT,DP).NE.ONE)THEN     ! FRACTIONS DO NOT ADD TO ONE
                  DO 220 JJ=1,NC
                    FVRATIO(J,JJ)=FVRATIO(J,JJ)/TRAT ! NORMALIZE FRACTIONS
  220             ENDDO
                ENDIF
              ENDIF
C
C-------------PROCESS FTYPE, THE FLOW-RATE VARIABLE DIRECTION 
              FTYPE=LINE(IPTS:IPTF)
              IF(FTYPE.EQ.'i'.OR.FTYPE.EQ.'I')THEN
                FVDIR(J)=1
              ELSEIF(FTYPE.EQ.'w'.OR.FTYPE.EQ.'W')THEN
                FVDIR(J)=2
              ELSE
                WRITE(IOUT,4020,ERR=990)FTYPE    ! VALUE OF FTYPE IS INVALID 
                CALL USTOP(' ')
              ENDIF
C
C-------------PROCESS FSTAT, THE FLAG TO INDICATE FLOW-RATE VARIABLE IS ACTIVE
              FSTAT=LINE(IPSS:IPSF)
              IF(FSTAT.EQ.'y'.OR.FSTAT.EQ.'Y')THEN
                FVON(J) = 1
              ELSEIF(FSTAT.EQ.'n'.OR.FSTAT.EQ.'N')THEN
                FVON(J) = -1
              ELSE
                WRITE(IOUT,4030,ERR=990)FSTAT    ! VALUE OF FSTAT IS INVALID
                CALL USTOP(' ')
              ENDIF
C
C-------------ASSIGN WELLSP TO IDENTIFY STRESS PERIODS VARIABLE IS ACTIVE
              WSP(J)=LINE(ITYPES:ITYPEF)
              CALL SPARRAY(WSP(J),FVSP,NFVAR,NPER,J)
  230       ENDDO
C
            JFVROW=JFVROW+NFVARG(G)
          ENDIF
  240   ENDDO
        GRDLOCDCV(1:NFVAR)=GRDLOCFV              ! STORE GRID LOCATIONS
        DEALLOCATE (GRDLOCFV,STAT=ISTAT)
        IF(ISTAT.NE.0)GOTO 993
      ENDIF
C
C-----READ EXTERNAL VARIABLES INFORMATION
C
      IF(NEVAR.GE.1)THEN
C
C-------ALLOCATE SPACE FOR EXTERNAL VARIABLES
        ALLOCATE (EVNAME(NEVAR),EVMAX(NEVAR),EVMIN(NEVAR),EVBASE(NEVAR),
     &            EVDIR(NEVAR),EVSP(NEVAR,NPER),STAT=ISTAT)
        IF(ISTAT.NE.0)GOTO 992 
        BYTES = BYTES + 10*NEVAR + 8*3*NEVAR + 4*NEVAR +(NEVAR*NPER)/8
        ALLOCATE (ESP(NEVAR),GRDLOCEV(NEVAR),STAT=ISTAT)  ! TEMPORARY ARRAYS
        IF(ISTAT.NE.0)GOTO 992 
C
        JEVROW=0
        DO 320 G=1,NGRIDS
          IF(NEVARG(G).GE.1)THEN
            LOCAT=NUNOPN(G)                      ! SET DCV FILE UNIT
            DO 310 J=1+JEVROW,NEVARG(G)+JEVROW
              READ(LOCAT,'(A)',ERR=991)LINE
              LLOC=1
              CALL URWORD(LINE,LLOC,INMS,INMF,0,NDUM,RDUM,IOUT,LOCAT)
              CALL URWORD(LINE,LLOC,IPTS,IPTF,0,NDUM,RDUM,IOUT,LOCAT)
              CALL URWORD(LINE,LLOC,ITYPES,ITYPEF,0,NDUM,RDUM,
     &                    IOUT,LOCAT)
C
C-------------CHECK THAT EXTERNAL-VARIABLE NAME HAS NOT BEEN USED
              DO 300 JJ=1,J-1
                IF(LINE(INMS:INMF).EQ.EVNAME(JJ))THEN
                  WRITE(IOUT,5000,ERR=990)EVNAME(JJ)
                  CALL USTOP(' ')
                ENDIF
  300         ENDDO
              EVNAME(J)=LINE(INMS:INMF)
              GRDLOCEV(J)=G  
C-------------PROCESS ETYPE, THE EXTERNAL VARIABLE DIRECTION 
              ETYPE=LINE(IPTS:IPTF)
              IF(ETYPE.EQ.'IM'.OR.ETYPE.EQ.'im'.OR.ETYPE.EQ.'Im')THEN
                EVDIR(J)=1
             ELSEIF(ETYPE.EQ.'EX'.OR.ETYPE.EQ.'ex'.OR.ETYPE.EQ.'Ex')THEN
                EVDIR(J)=2
             ELSEIF(ETYPE.EQ.'HD'.OR.ETYPE.EQ.'hd'.OR.ETYPE.EQ.'Hd')THEN
                EVDIR(J)=3
             ELSEIF(ETYPE.EQ.'SF'.OR.ETYPE.EQ.'sf'.OR.ETYPE.EQ.'Sf')THEN
                EVDIR(J)=4
             ELSEIF(ETYPE.EQ.'ST'.OR.ETYPE.EQ.'st'.OR.ETYPE.EQ.'St')THEN
                EVDIR(J)=5
             ELSEIF(ETYPE.EQ.'GN'.OR.ETYPE.EQ.'gn'.OR.ETYPE.EQ.'Gn')THEN
                EVDIR(J)=6
              ELSE
                WRITE(IOUT,4020,ERR=990)ETYPE    ! VALUE OF ETYPE IS INVALID 
                CALL USTOP(' ')
              ENDIF
C
C-------------ASSIGN EVSP TO IDENTIFY STRESS PERIODS VARIABLE IS ACTIVE
              ESP(J)=LINE(ITYPES:ITYPEF)
              CALL SPARRAY(ESP(J),EVSP,NEVAR,NPER,J)
  310       ENDDO
C
          JEVROW=JEVROW+NEVARG(G)
          ENDIF
  320   ENDDO
C
        GRDLOCDCV(NFVAR+1:NFVAR+NEVAR)=GRDLOCEV  ! STORE GRID LOCATIONS
        DEALLOCATE (GRDLOCEV,STAT=ISTAT)
        IF(ISTAT.NE.0)GOTO 993
      ENDIF
C
C----READ IN BINARY VARIABLE INFORMATION
C
      IF(NBVAR.GE.1)THEN
C
C-------ALLOCATE SPACE FOR BINARY VARIABLES
        ALLOCATE (BVNAME(NBVAR),BVBASE(NBVAR),BVNLIST(NBVAR),STAT=ISTAT)
        IF(ISTAT.NE.0)GOTO 992 
        BYTES = BYTES + 10*NBVAR + 8*NBVAR + 4*NBVAR 
        ALLOCATE (TBVLIST(NBVAR,NFVAR+NEVAR),GRDLOCBV(NBVAR),STAT=ISTAT) !TEMP
        IF(ISTAT.NE.0)GOTO 992 
        NPVMAX = 0
C
        JBVROW=0
        DO 450 G=1,NGRIDS
          IF(NBVARG(G).GE.1)THEN
            LOCAT=NUNOPN(G)
            DO 440 J=1+JBVROW,NBVARG(G)+JBVROW
              READ(LOCAT,'(A)',ERR=991)LINE
              LLOC=1
              CALL URWORD(LINE,LLOC,INMS,INMF,0,NDUM,RDUM,IOUT,LOCAT)
              CALL URWORD(LINE,LLOC,ISTART,ISTOP,2,TNPV,RDUM,IOUT,LOCAT)
C
C-------------CHECK THAT BINARY-VARIABLE NAME HAS NOT BEEN USED
              DO 400 JJ=1,J-1
                IF(LINE(INMS:INMF).EQ.BVNAME(JJ))THEN
                  WRITE(IOUT,6000,ERR=990)BVNAME(JJ)
                  CALL USTOP(' ')
                ENDIF
  400         ENDDO
              BVNAME(J)=LINE(INMS:INMF)          ! STORE THE VARIABLE NAME
              GRDLOCBV(J)=G  
C
C-------------PROCESS THE NUMBER OF VARIABLES ASSOCIATED WITH THE BINARY
              IF(TNPV.LT.1 .OR. TNPV.GT.NFVAR+NEVAR)THEN
                WRITE(IOUT,6010,ERR=990)BVNAME(J)
                CALL USTOP(' ')
              ENDIF
              BVNLIST(J)=TNPV                    ! STORE THE NUMBER OF VARIABLES
              NPVMAX = MAX(NPVMAX,TNPV)          ! FIND THE MAXIMUM NUMBER 
C
C-------------READ DECISION VARIABLES ASSOCIATED WITH BINARY VARIABLE
              DO 430 JJ=1,TNPV
                CALL URWORD(LINE,LLOC,INMVS,INMVF,0,NDUM,RDUM,
     &                      IOUT,LOCAT)
                TFVNAME=LINE(INMVS:INMVF)        ! GRAB THE NAME
                IF (TFVNAME.EQ.'&') THEN         ! IF THE NAME IS &
                  READ(LOCAT,'(A)',ERR=991)LINE  ! BVLIST CONTINUES
                  LLOC=1                         ! TO A NEW LINE
                  CALL URWORD(LINE,LLOC,INMVS,INMVF,0,NDUM,RDUM,
     &                        IOUT,LOCAT)
	            TFVNAME=LINE(INMVS:INMVF)      ! GRAB NAME ON NEW LINE
                ENDIF	   
C
C---------------PROCESS THE ASSOCIATED VARIABLE
                NFOUND=.TRUE.
                DO 410 I=1,NFVAR
                  IF(FVNAME(I).EQ.TFVNAME)THEN
                    TBVLIST(J,JJ)=I              ! STORE THE VARIABLE NUMBER
                    NFOUND=.FALSE.
                    EXIT
                  ENDIF
  410           ENDDO
                DO 420 I=1,NEVAR
                  IF(EVNAME(I).EQ.TFVNAME)THEN
                    TBVLIST(J,JJ)=NFVAR+I        ! STORE THE VARIABLE NUMBER
                    NFOUND=.FALSE.
                    EXIT
                  ENDIF
  420           ENDDO
                IF(NFOUND)THEN
                  WRITE(IOUT,6020,ERR=990)TFVNAME
                  CALL USTOP(' ')
                ENDIF
  430         ENDDO
  440       ENDDO
C
          JBVROW=JBVROW+NBVARG(I)
          ENDIF
  450   ENDDO
C   
C-------MOVE TEMPORARY BVLIST INTO PERMANENT STORAGE
        ALLOCATE (BVLIST(NBVAR,NPVMAX),STAT=ISTAT)
        IF(ISTAT.NE.0)GOTO 992
        BYTES = BYTES + 4*NBVAR*NPVMAX
        DO 510 J=1,NBVAR
          DO 500 JJ=1,BVNLIST(J)
            BVLIST(J,JJ) = TBVLIST(J,JJ)
  500     ENDDO
  510   ENDDO
        DEALLOCATE (TBVLIST,STAT=ISTAT)
        IF(ISTAT.NE.0)GOTO 993
C
        GRDLOCDCV(NFVAR+NEVAR+1:NFVAR+NEVAR+NBVAR)=GRDLOCBV ! STORE LOCATIONS
        DEALLOCATE (GRDLOCBV,STAT=ISTAT)
        IF(ISTAT.NE.0)GOTO 993
      ENDIF
C
C-----WRITE INFORMATION TO OUTPUT FILE
      IF(IPRN.EQ.1)THEN
        IF(NFVAR.GT.0)THEN                       ! WRITE PUMPING-VARIABLE INFO
          WRITE(IOUT,7000,ERR=990)
          DO 610 J=1,NFVAR
            IF(NGRIDS.GT.1)THEN                  ! WRITE DECVAR FILE NAME
              IF(J.EQ.1)THEN                     ! WRITE FILE NAME FOR THIS GRID
                WRITE(IOUT,7005,ERR=990)FNAMEN(GRDLOCDCV(J))
              ELSEIF(GRDLOCDCV(J).NE.GRDLOCDCV(J-1))THEN
                WRITE(IOUT,7005,ERR=990)FNAMEN(GRDLOCDCV(J))
              ENDIF
            ENDIF
            DO 600 JJ=1,FVNCELL(J)
              IF(FVDIR(J).EQ.1)THEN
                IF(JJ.EQ.1)THEN
                  WRITE(IOUT,7010,ERR=990)J,FVNAME(J),'INJECTION',
     1                 FVKLOC(J,1),FVILOC(J,1),FVJLOC(J,1),FVRATIO(J,JJ)
                ELSE
                  WRITE(IOUT,7020,ERR=990)FVKLOC(J,JJ),FVILOC(J,JJ),
     1                            FVJLOC(J,JJ),FVRATIO(J,JJ)
                ENDIF
              ELSEIF(FVDIR(J).EQ.2)THEN
                IF(JJ.EQ.1)THEN
                  WRITE(IOUT,7010,ERR=990)J,FVNAME(J),'WITHDRAWAL',
     1                 FVKLOC(J,1),FVILOC(J,1),FVJLOC(J,1),FVRATIO(J,JJ)
                ELSE
                  WRITE(IOUT,7020,ERR=990)FVKLOC(J,JJ),FVILOC(J,JJ),
     1                          FVJLOC(J,JJ),FVRATIO(J,JJ)
                ENDIF
              ENDIF
  600       ENDDO
            IF(FVON(J).GT.0)THEN
              WRITE(IOUT,7030,ERR=990)WSP(J)
            ELSE
              WRITE(IOUT,7040,ERR=990)
            ENDIF
  610     ENDDO
        ENDIF
C
        IF(NEVAR.GE.1)THEN                       ! WRITE EXTERNAL-VARIABLE INFO
          WRITE(IOUT,7050,ERR=990)
          DO 700 J=1,NEVAR
            IF(NGRIDS.GT.1)THEN                  ! WRITE DECVAR FILE NAME
              JJ=NFVAR
              IF(J.EQ.1)THEN                     ! WRITE FILE NAME FOR THIS GRID
                WRITE(IOUT,7055,ERR=990)FNAMEN(GRDLOCDCV(J+JJ))
              ELSEIF(GRDLOCDCV(J+JJ).NE.GRDLOCDCV(J-1+JJ))THEN
                WRITE(IOUT,7055,ERR=990)FNAMEN(GRDLOCDCV(J+JJ))
              ENDIF
            ENDIF
            WRITE(IOUT,7060,ERR=990)J,EVNAME(J),ETYPED(EVDIR(J)),ESP(J)
  700     ENDDO
        ENDIF
C
        IF(NBVAR.GE.1)THEN                       ! WRITE BINARY-VARIABLE INFO
          WRITE(IOUT,7070,ERR=990)
          DO 800 I=1,NBVAR
            IF(NGRIDS.GT.1)THEN                  ! WRITE DECVAR FILE NAME
              JJ=NFVAR+NEVAR
              IF(I.EQ.1)THEN                     ! WRITE FILE NAME FOR THIS GRID
                WRITE(IOUT,7075,ERR=990)FNAMEN(GRDLOCDCV(I+JJ))
              ELSEIF(GRDLOCDCV(I+JJ).NE.GRDLOCDCV(I-1+JJ))THEN
                WRITE(IOUT,7075,ERR=990)FNAMEN(GRDLOCDCV(I+JJ))
              ENDIF
            ENDIF
            TNPV=BVNLIST(I)
            IF(BVLIST(I,1).LE.NFVAR)THEN
              TFVNAME=FVNAME(BVLIST(I,1))
            ELSE
              TFVNAME=EVNAME(BVLIST(I,1))
            ENDIF
            WRITE(IOUT,7080,ERR=990)I,BVNAME(I),TNPV,TFVNAME
            DO 810 II=2,TNPV
              IF(BVLIST(I,II).LE.NFVAR)THEN
                TFVNAME=FVNAME(BVLIST(I,II))
              ELSE
                TFVNAME=EVNAME(BVLIST(I,II))
              ENDIF
              WRITE(IOUT,7090,ERR=990)TFVNAME
  810       ENDDO
  800     ENDDO
        ENDIF
      ENDIF
C 
C----CLOSE FILE
      DO I=1,NGRIDS
        CLOSE(NUNOPN(I))
      ENDDO
      WRITE(IOUT,7100,ERR=990)BYTES
      WRITE(IOUT,7110,ERR=990)
C
C-----DEALLOCATE LOCAL ALLOCATABLE ARRAYS
      IF(ALLOCATED(WSP))THEN
        DEALLOCATE(WSP,STAT=ISTAT)
        IF(ISTAT.NE.0)GOTO 993
      ENDIF
      IF(ALLOCATED(ESP))THEN
        DEALLOCATE(ESP,STAT=ISTAT)
        IF(ISTAT.NE.0)GOTO 993
      ENDIF
C
 1000 FORMAT(1X,/1X,'OPENING DECISION-VARIABLE FILE ON UNIT ',I4,':',
     1  /1X,A200)
 2000 FORMAT(1X,/1X,'PROGRAM STOPPED. IPRN MUST BE EQUAL TO 0 OR 1: ',
     1  I4)
 2100 FORMAT(1X,/1X,'OPTIMAL FLOW VARIABLE VALUES WILL BE WRITTEN ',
     1  'TO UNIT NUMBER:',I4)
 3000 FORMAT(1X,/1X,'NO. OF FLOW-RATE DECISION VARIABLES (NFVAR):',
     1  T45,I8,/1X,'NO. OF EXTERNAL DECISION VARIABLES (NEVAR):',
     2  T45,I8)
 3010 FORMAT(1X,'BINARY VARIABLES ARE ACTIVE. NBVAR:',T45,I8)
 3020 FORMAT(1X,'BINARY VARIABLES ARE NOT ACTIVE.')
 4000 FORMAT(1X,/1X,'PROGRAM STOPPED. DECISION-VARIABLE NAME ',A,
     1  ' HAS ALREADY BEEN USED.') 
 4010 FORMAT(1X,/1X,'PROGRAM STOPPED. FVNCELL MUST BE GREATER THAN OR',
     1  ' EQUAL TO 1, BUT IS: ',I5)
 4020 FORMAT(1X,/1X,'PROGRAM STOPPED. FTYPE MUST BE W OR I, BUT IS: ',
     1  A)
 4030 FORMAT(1X,/1X,'PROGRAM STOPPED. FSTAT MUST BE Y OR N, BUT IS: ',
     1  A)
 5000 FORMAT(1X,/1X,'PROGRAM STOPPED. EXTERNAL-VARIABLE NAME ',A,
     1  ' HAS ALREADY BEEN USED.')
 6000 FORMAT(1X,/1X,'PROGRAM STOPPED. BINARY-VARIABLE NAME ',A,
     1  ' HAS ALREADY BEEN USED.')
 6010 FORMAT(1X,/1X,'PROGRAM STOPPED. NUMBER OF DECISION VARIABLES',
     1  ' ASSOCIATED WITH BINARY VARIABLE ',A,' IS NOT VALID.')
 6020 FORMAT(1X,/1X,'PROGRAM STOPPED.',A,' WAS NOT DEFINED AS A', 
     1  ' VARIABLE NAME (FVNAME)')
 7000 FORMAT(/,T2,'FLOW-RATE VARIABLES:',/,T52,'FRACTION',/,
     1  T3,'NUMBER',T14,'NAME',T25,'TYPE',T35,'LAY',T41,'ROW',
     2  T47,'COL',T53,'OF FLOW',/,1X,'----------------------',
     3  '------------------------------------')
C
 7005 FORMAT('  FLOW-RATE VARIABLES READ FROM FILE: ',A120,/)
 7010 FORMAT(I5,6X,A10,1X,A10,1X,3I5,4X,F6.4)
 7020 FORMAT(T34,3I5,4X,F6.4)
 7030 FORMAT('   AVAILABLE IN STRESS PERIODS: ',A120,/)
 7040 FORMAT('   UNAVAILABLE IN ALL STRESS PERIODS',/)
 7050 FORMAT(/,T2,'EXTERNAL VARIABLES:',/,/,T3,'NUMBER',T14,'NAME',
     1  T24,'TYPE',/,1X'------------------------------',/)
 7055 FORMAT('  EXTERNAL VARIABLES READ FROM FILE: ',A120,/)
 7060 FORMAT(I5,8X,A10,A10,/,'   AVAILABLE IN STRESS PERIODS: ',A120,/)
 7070 FORMAT(/,T2,'BINARY VARIABLES:',/,T24,'NUMBER OF',T46,
     1  'NAME OF',/,T3,'NUMBER',T14,'NAME',T20,
     2  'ASSOCIATED VARIABLES',T42,'ASSOCIATED VARIABLES',/,
     3  1X'-------------------------------------------------------',/)
 7075 FORMAT('  BINARY VARIABLES READ FROM FILE: ',A120,/)
 7080 FORMAT(I5,8X,A10,T25,I5,T46,A)
 7090 FORMAT(T46,A)
 7100 FORMAT(/,1X,I8,' BYTES OF MEMORY ALLOCATED TO STORE DATA FOR',
     1               ' DECISION VARIABLES')
 7110 FORMAT(/,1X,'CLOSING DECISION-VARIABLE FILE',/)
C
      RETURN
C
C-----ERROR HANDLING
  990 CONTINUE
C-----FILE-WRITING ERROR
      INQUIRE(IOUT,NAME=FLNM,FORM=FMTARG,ACCESS=ACCARG,ACTION=FILACT)
      WRITE(*,9900)TRIM(FLNM),IOUT,FMTARG,ACCARG,FILACT
 9900 FORMAT(/,1X,'*** ERROR WRITING FILE "',A,'" ON UNIT ',I5,/,
     &7X,'SPECIFIED FILE FORMAT: ',A,/
     &7X,'SPECIFIED FILE ACCESS: ',A,/
     &7X,'SPECIFIED FILE ACTION: ',A,/
     &2X,'-- STOP EXECUTION (GWM1DCV3AR)')
      CALL USTOP(' ')
C
  991 CONTINUE
C-----FILE-READING ERROR
      INQUIRE(LOCAT,NAME=FLNM,FORM=FMTARG,ACCESS=ACCARG,ACTION=FILACT)
      WRITE(*,9910)TRIM(FLNM),LOCAT,FMTARG,ACCARG,FILACT
      WRITE(IOUT,9910)TRIM(FLNM),LOCAT,FMTARG,ACCARG,FILACT
 9910 FORMAT(/,1X,'*** ERROR READING FILE "',A,'" ON UNIT ',I5,/,
     &7X,'SPECIFIED FILE FORMAT: ',A,/
     &7X,'SPECIFIED FILE ACCESS: ',A,/
     &7X,'SPECIFIED FILE ACTION: ',A,/
     &2X,'-- STOP EXECUTION (GWM1DCV3AR)')
      CALL USTOP(' ')
C
  992 CONTINUE
C-----ARRAY-ALLOCATING ERROR
      WRITE(*,9920)
 9920 FORMAT(/,1X,'*** ERROR ALLOCATING ARRAY(S)',
     &2X,'-- STOP EXECUTION (GWM1DCV3AR)')
      CALL USTOP(' ')
C
  993 CONTINUE
C-----ARRAY-DEALLOCATING ERROR
      WRITE(*,9930)
 9930 FORMAT(/,1X,'*** ERROR DEALLOCATING ARRAY(S)',
     &2X,'-- STOP EXECUTION (GWM1DCV3AR)')
      CALL USTOP(' ')
C
  999 CONTINUE
C-----FILE-OPENING ERROR
      INQUIRE(LOCAT,NAME=FLNM,FORM=FMTARG,ACCESS=ACCARG,ACTION=FILACT)
      WRITE(*,9990)TRIM(FLNM),LOCAT,'OLD',FMTARG,ACCARG,FILACT
      WRITE(IOUT,9990)TRIM(FLNM),LOCAT,'OLD',FMTARG,ACCARG,
     &                 FILACT
 9990 FORMAT(/,1X,'*** ERROR OPENING FILE "',A,'" ON UNIT ',I5,/,
     &7X,'SPECIFIED FILE STATUS: ',A,/
     &7X,'SPECIFIED FILE FORMAT: ',A,/
     &7X,'SPECIFIED FILE ACCESS: ',A,/
     &7X,'SPECIFIED FILE ACTION: ',A,/
     &2X,'-- STOP EXECUTION (GWM1DCV3AR)')
      CALL USTOP(' ')
C
      CONTAINS
C***********************************************************************
      SUBROUTINE LOADDV(JJ)
C***********************************************************************
      INTEGER(I4B)::JJ
C+++++++++++++++++++++++++++++++++++++++++++++++++++++++++++++++++++++++
C
C-----CHECK THAT CELL IS ON GRID      
      CALL SGWF2BAS7PNT(G)                       ! CHANGE POINTERS TO THIS GRID
      IF(IR.LT.1 .OR. IR.GT.NROW)THEN
        WRITE(IOUT,1000,ERR=990)IR
        CALL USTOP(' ')
      ENDIF
      IF(IC.LT.1 .OR. IC.GT.NCOL)THEN
        WRITE(IOUT,2000,ERR=990)IC
        CALL USTOP(' ')
      ENDIF
      IF(IL.LT.1 .OR. IL.GT.NLAY)THEN
        WRITE(IOUT,3000,ERR=990)IL
        CALL USTOP(' ')
      ENDIF
C
C-----LOAD VARIABLES 
      FVILOC(J,JJ)=IR                   
      FVJLOC(J,JJ)=IC
      FVKLOC(J,JJ)=IL
C
 1000 FORMAT(1X,/1X,'PROGRAM STOPPED. ROW NUMBER FOR WELL IS OUT OF',
     1  ' BOUNDS: ',I5)
 2000 FORMAT(1X,/1X,'PROGRAM STOPPED. COLUMN NUMBER FOR WELL IS OUT',
     1  ' OF BOUNDS: ',I5)
 3000 FORMAT(1X,/1X,'PROGRAM STOPPED. LAYER NUMBER FOR WELL IS OUT',