      MODULE GWM1STA3
C     VERSION: 15JAN2010
      IMPLICIT NONE
      PRIVATE
      PUBLIC::STANUM,SVNAME,SVBASE,SVILOC,SVJLOC,
     &        SVKLOC,SVSP,STASTATE,STASTATE0,STATERES,STARHS
      PUBLIC::GWM1STA3AR,GWM1STA3OS,GWM1STA3FP,GWM1STA3FPR,GWM1STA3OT
C
      INTEGER, PARAMETER :: I4B = SELECTED_INT_KIND(9)
      INTEGER, PARAMETER :: I2B = SELECTED_INT_KIND(4)
      INTEGER, PARAMETER :: SP = KIND(1.0)
      INTEGER, PARAMETER :: DP = KIND(1.0D0)
      INTEGER, PARAMETER :: LGT = KIND(.TRUE.)
C
C-----VARIABLES FOR STATE VARIABLES
      INTEGER(I4B),SAVE::STANUM,NHVAR,NRVAR,NSVAR
      CHARACTER(LEN=10),SAVE,ALLOCATABLE::SVNAME(:)
      REAL(DP),SAVE,ALLOCATABLE::SVBASE(:)
      INTEGER(I4B),SAVE,ALLOCATABLE::SVILOC(:),SVJLOC(:),SVKLOC(:)
      INTEGER(I4B),SAVE,ALLOCATABLE::SVSP(:,:)
      INTEGER(I4B),SAVE,ALLOCATABLE::GRDLOCSTA(:),NSSVGZL(:)
      INTEGER(I4B),SAVE,ALLOCATABLE::SSVGLOC(:,:),SSVZLOC(:,:)
      REAL(DP),SAVE,ALLOCATABLE::STASTATE(:),STASTATE0(:),STATERES(:,:),
     &        STARHS(:)
      INTEGER(I4B),SAVE,POINTER::SVZONE(:,:,:,:)
C
      TYPE GWMSTATYPE
       INTEGER(I4B),POINTER,DIMENSION(:,:,:,:)::SVZONE
      END TYPE
      TYPE(GWMSTATYPE), SAVE  ::GWMSTADAT(10) 
C
C      STANUM   -total number of state variables     
C      NHVAR    -number of head state variables
C      NRVAR    -number of streamflow state variables
C      NSVAR    -number of storage state variables
C      SVNAME   -name of state variable (10 digits)
C      SVBASE   -current value of state variable during solution process 
C      SVILOC(I), SVJLOC(I), SVKLOC(I)
C               -i,j,k location in MODFLOW grid of the ith head state variable
C                  or segment (SVILOC) and reach (SVJLOC) for ith streamflow SV
C      SVZONE   - indicator array for cells to be included in calculation of storage change
c                  for storage state variables
C      SVSP     -vector recording information about the stress period(s) in which the
C                  state variable is to be evaluated
C      GRDLOCSTA-grid number on which state variable is located
C      NSSVGZL  -vector containing the number of grids associated with a storage state variable
C      SSVGLOC  -vector holding storage state variable grid number information 
C      SSVZLOC  -vector holding storage state variable zone number information 
C      STASTATE -vector containing state values resulting from most 
C                 recent flow process simulation
C      STASTATE0-vector used to store base state values during pertubation
C                 for response matrix generation
C      STATERES -matrix response coefficient for the state variable to pumping
C      STARHS   -stores non-variable information from Taylor series eqn for state variables
C
C-----ERROR HANDLING
      INTEGER(I2B)::ISTAT  
      CHARACTER(LEN=200)::FLNM
      CHARACTER(LEN=20)::FILACT,FMTARG,ACCARG 
      INTEGER(I4B)::NDUM
      REAL(SP)::RDUM
C
      CONTAINS
C*************************************************************************
      SUBROUTINE GWM1STA3AR(FNAMEN,IOUT,NPER,NGRIDS)
C*************************************************************************
C     VERSION: 15JAN2010
C     PURPOSE: READ INPUT FROM THE STATE VARIABLE FILE (STAVAR)
C---------------------------------------------------------------------------
      USE GWM1BAS3, ONLY : GWM1BAS3PS
      USE GLOBAL,   ONLY : NCOL,NROW,NLAY
      USE GWM1DCV3, ONLY : NFVAR
      INTEGER(I4B),INTENT(IN)::IOUT,NPER,NGRIDS
      CHARACTER(LEN=200),INTENT(IN),DIMENSION(NGRIDS)::FNAMEN
      INTERFACE 
        SUBROUTINE URDCOM(IN,IOUT,LINE)
        CHARACTER*(*) LINE
        END
C
        SUBROUTINE URWORD(LINE,ICOL,ISTART,ISTOP,NCODE,N,R,IOUT,IN)
        CHARACTER*(*) LINE
        CHARACTER*20 STRING
        CHARACTER*30 RW
        CHARACTER*1 TAB
        END
C
        SUBROUTINE USTOP(STOPMESS)
        CHARACTER STOPMESS*(*)
        END
C 
        INTEGER FUNCTION IGETUNIT(IFIRST,MAXUNIT)
        INTEGER I,IFIRST,IOST,MAXUNIT
        LOGICAL LOP
        END        
      END INTERFACE
C-----LOCAL VARIABLES  
      CHARACTER(LEN=10),SAVE,ALLOCATABLE::SVNM(:)
      INTEGER(I4B),SAVE,ALLOCATABLE::NG(:),NLMX(:)
      INTEGER(I4B),DIMENSION(NGRIDS)::NHVARG,NRVARG,NSVARG,NSVARGU
      INTEGER(I4B),DIMENSION(NGRIDS)::NUNOPN
      INTEGER(I4B)::LOCAT,ISTART,ISTOP,IPRN,IPRNG,LLOC,INMS,INMF,BYTES
      INTEGER(I4B)::JSVROW,NSEG,NRCH,SVSPL
      INTEGER(I4B)::ICZS,ICZF,SPSTRT,SPEND,NSVZL,NGMAX
      INTEGER(I4B)::G,I,J,K,II,JJ,KK,IR,IC,IL,JE,JS,JZ,JESV,JSR
      CHARACTER(LEN=200)::LINE
C++++++++++++++++++++++++++++++++++++++++++++++++++++++++++++++++++++++++
C
C-----LOOP OVER ALL GRIDS TO OPEN FILES AND COUNT STATE VARIABLES
      NHVARG = 0
      NRVARG = 0
      NSVARG = 0
      NSVARGU= 0
      IPRN = -1
      DO 100 G=1,NGRIDS
        IF(FNAMEN(G).NE.' ')THEN
C---------OPEN FILE
          NUNOPN(G)=IGETUNIT(10,200)             
          LOCAT=NUNOPN(G)
          WRITE(IOUT,1000,ERR=990)LOCAT,FNAMEN(G)
          OPEN(UNIT=LOCAT,FILE=FNAMEN(G),ACTION='READ',ERR=999)
C---------CHECK FOR COMMENT LINES
          CALL URDCOM(LOCAT,IOUT,LINE)
C
C---------READ IPRN
          LLOC=1
          CALL URWORD(LINE,LLOC,ISTART,ISTOP,2,IPRNG,RDUM,IOUT,LOCAT)
          IF(IPRNG.EQ.0 .OR. IPRNG.EQ.1)THEN
            IPRN = MAX(IPRN,IPRNG)               ! USE MOST DETAILED ECHO
          ELSE
            WRITE(IOUT,2000,ERR=990)IPRNG        ! INVALID VALUE OF IPRN
            CALL USTOP(' ')
          ENDIF
C
C---------READ NHVAR, NRVAR AND NSVAR
          READ(LOCAT,'(A)',ERR=991)LINE
          LLOC=1
          CALL URWORD(LINE,LLOC,ISTART,ISTOP,2,NHVARG(G),RDUM,IOUT,
     &                LOCAT)
          CALL URWORD(LINE,LLOC,ISTART,ISTOP,2,NRVARG(G),RDUM,IOUT,
     &                LOCAT)
          CALL URWORD(LINE,LLOC,ISTART,ISTOP,2,NSVARG(G),RDUM,IOUT,
     &                LOCAT)
          IF(NHVARG(G)+NRVARG(G)+NSVARG(G).LE.0)THEN
            CALL GWM1BAS3PS(' PROGRAM STOPPED: NO STATE
     &                    VARIABLES ON GRID',G)
            CALL USTOP(' ')
          ENDIF
        ENDIF
  100 ENDDO
C
C-----SUM UP THE STATE VARIABLES
      NHVAR=SUM(NHVARG)                          ! TOTAL NUMBER OF HEAD SV
      NRVAR=SUM(NRVARG)                          ! TOTAL NUMBER OF STRM SV
      NSVAR=SUM(NSVARG)     ! HERE, NSVAR=# OF SV READ FROM FILES
      IF(NSVAR.GT.0)THEN
        ALLOCATE(SVNM(NSVAR),NG(NSVAR)) ! TEMPORARY STORAGE
        ! ASSEMBLE LIST OF STATE VARIABLES
        CALL SVREAD(SVNM,NG)
        ! SEARCH OVER STORAGE STATE VARIABLE NAMES; FIND NUMBER UNIQUE  
        CALL SVSRCH(SVNM,NG,NSVAR,NSVARGU,NGMAX)
        DEALLOCATE (SVNM,NG)                     ! ERASE TEMP STORAGE
        NSVAR=SUM(NSVARGU)  ! NOW, NSVAR=NUMBER OF UNIQUE STATE VARIABLES
      ENDIF
      STANUM=NHVAR+NRVAR+NSVAR                   ! TOTAL NUMBER OF SV
C
C-----WRITE HEADER AND ALLOCATE SPACE FOR STATE VARIABLE INFORMATION
      IF(STANUM.GT.0)THEN
        WRITE(IOUT,3000,ERR=990)NHVAR,NRVAR,NSVAR
        IF(NSVAR.NE.SUM(NSVARG))WRITE(IOUT,3010,ERR=990)SUM(NSVARG)
        ALLOCATE (SVNAME(STANUM),SVBASE(STANUM),
     &      SVSP(STANUM,2),GRDLOCSTA(STANUM), 
     &      SVILOC(STANUM),SVJLOC(STANUM),SVKLOC(STANUM),
     &      STASTATE(STANUM),STASTATE0(STANUM),
     &      STATERES(STANUM,NFVAR),STARHS(STANUM),STAT=ISTAT)
        IF(ISTAT.NE.0)GOTO 992 
        BYTES = 10*STANUM + 8*STANUM +  3*4*STANUM + 4*3*STANUM +
     &          2*8*STANUM + 8*STANUM*NFVAR + 8*STANUM
        ALLOCATE(NSSVGZL(NSVAR),SSVGLOC(NSVAR,NGMAX),
     &           SSVZLOC(NSVAR,NGMAX),STAT=ISTAT)
        IF(ISTAT.NE.0)GOTO 992 
        BYTES = BYTES + 4*NSVAR + 2*4*NSVAR*NGMAX
        DO 120 G=1,NGRIDS                 ! ALLOCATE ON EACH GRID
          IF(NSVARG(G).GT.0)THEN
            CALL SGWF2BAS7PNT(G)                 ! POINT TO GRID DIMENSIONS
            ALLOCATE (GWMSTADAT(G)%SVZONE(NCOL,NROW,NLAY,NSVARG(G)),
     &                STAT=ISTAT)
            IF(ISTAT.NE.0)GOTO 992 
            BYTES = BYTES + 4*NCOL*NROW*NLAY*NSVARG(G)
          ENDIF
 120    ENDDO
      ELSE
        RETURN                                   ! NO STATE VARIABLES
      ENDIF
C
C-----READ HEAD STATE VARIABLE INFORMATION
      JSVROW=0
      DO 200 G=1,NGRIDS
        IF(FNAMEN(G).NE.' ')THEN
C---------LOOP OVER HEAD STATE VARIABLES IN EACH ACTIVE GRID FILE
          LOCAT=NUNOPN(G)  
          DO 180 J=1+JSVROW,NHVARG(G)+JSVROW
            READ(LOCAT,'(A)',ERR=991)LINE
            LLOC=1
C              TRACK START AND END COL FOR SVNAME
            CALL URWORD(LINE,LLOC,INMS,INMF,0,NDUM,RDUM,IOUT,LOCAT)
            CALL URWORD(LINE,LLOC,ISTART,ISTOP,2,IL,RDUM,IOUT,LOCAT)
            CALL URWORD(LINE,LLOC,ISTART,ISTOP,2,IR,RDUM,IOUT,LOCAT)
            CALL URWORD(LINE,LLOC,ISTART,ISTOP,2,IC,RDUM,IOUT,LOCAT)
            CALL URWORD(LINE,LLOC,ISTART,ISTOP,2,SVSPL,RDUM,IOUT,LOCAT)
C-----------PROCESS NAME OF STATE VARIABLE; CHECK IF NAME UNIQUE
            CALL CHKNAME(LINE(INMS:INMF),G,J,-1)
            SVNAME(J)=LINE(INMS:INMF)            ! SAVE THE NAME
C-----------PROCESS ROW, COLUMN, LAYER LOCATIONS FOR THIS VARIABLE
            CALL LOADSV(G)                       ! TEST INPUT AND STORE LOCATION
C-----------STORE STRESS PERIOD AND GRID FOR EVALUATION OF THIS STATE VARIABLE
            SVSP(J,1)=SVSPL
            GRDLOCSTA(J)=G
 180      ENDDO
          JSVROW=JSVROW+NHVARG(G)
        ENDIF
 200  ENDDO
C
C-----READ STREAMFLOW STATE VARIABLE INFORMATION
      DO 300 G=1,NGRIDS
        IF(FNAMEN(G).NE.' ')THEN
C---------LOOP OVER STREAMFLOW STATE VARIABLES IN EACH ACTIVE GRID FILE
          LOCAT=NUNOPN(G)  
          DO 280 J=1+JSVROW,NRVARG(G)+JSVROW
            READ(LOCAT,'(A)',ERR=991)LINE
            LLOC=1
C              TRACK START AND END COL FOR SVNAME
            CALL URWORD(LINE,LLOC,INMS,INMF,0,NDUM,RDUM,IOUT,LOCAT)
            CALL URWORD(LINE,LLOC,ISTART,ISTOP,2,NSEG,RDUM,IOUT,LOCAT)
            CALL URWORD(LINE,LLOC,ISTART,ISTOP,2,NRCH,RDUM,IOUT,LOCAT)
            CALL URWORD(LINE,LLOC,ISTART,ISTOP,2,SVSPL,RDUM,IOUT,LOCAT)
C-----------PROCESS NAME OF STATE VARIABLE; CHECK IF NAME UNIQUE
            CALL CHKNAME(LINE(INMS:INMF),G,J,-1)
            SVNAME(J)=LINE(INMS:INMF)            ! SAVE THE NAME
C-----------PROCESS SEGMENT AND REACH NUMBER 
            IF(NSEG.LT.0)CALL USTOP('PROGRAM STOPPED: NSEG IS NEGATIVE')
            SVILOC(J)=NSEG                       ! STORE SEGMENT NUMBER 
            IF(NRCH.LT.0)CALL USTOP('PROGRAM STOPPED: NRCH IS NEGATIVE')
            SVJLOC(J)=NRCH                       ! STORE REACH NUMBER 
C-----------STORE STRESS PERIOD AND GRID FOR EVALUATION OF THIS STATE VARIABLE
            SVSP(J,1)=SVSPL
            GRDLOCSTA(J)=G
 280      ENDDO
          JSVROW=JSVROW+NRVARG(G)
        ENDIF
 300  ENDDO
C
C-----WRITE INFORMATION TO OUTPUT FILE
      IF(IPRN.EQ.1)THEN
C-------WRITE HEAD SV INFO
        IF(NHVAR.GT.0)THEN
          WRITE(IOUT,5000,ERR=990)
          DO 500 J=1,NHVAR
            WRITE(IOUT,5100,ERR=990)J,SVNAME(J),
     &             SVKLOC(J),SVILOC(J),SVJLOC(J)
            WRITE(IOUT,5200,ERR=990)SVSP(J,1)
  500     ENDDO
        ENDIF
C-------WRITE STREAMFLOW SV INFO
        IF(NRVAR.GT.0)THEN
          WRITE(IOUT,6000,ERR=990)
           DO 600 J=NHVAR+1,NHVAR+NRVAR
             WRITE(IOUT,6100,ERR=990)J,SVNAME(J),
     &                SVILOC(J),SVJLOC(J)
             WRITE(IOUT,6200,ERR=990)SVSP(J,1)
  600      ENDDO
        ENDIF
C-------WRITE STORAGE SV HEADER
        IF(NSVAR.GT.0)WRITE(IOUT,6500,ERR=990)
      ENDIF
C
C-----READ STORAGE STATE VARIABLE INFORMATION
      JSR = JSVROW  ! SET INDEX TO END OF HEAD AND STRM SV
      JS  = JSR     ! INITIALIZE COUNTER FOR NUMBER OF UNIQUE STATE VARIABLES
      DO 700 G=1,NGRIDS
        IF(FNAMEN(G).NE.' ')THEN
C---------LOOP OVER STORAGE STATE VARIABLES IN EACH ACTIVE GRID FILE
          LOCAT=NUNOPN(G)  
          SVZONE=>GWMSTADAT(G)%SVZONE   ! POINT TO CORRECT SVZONE ARRAY 
          CALL SGWF2BAS7PNT(G)                 ! POINT TO GRID DIMENSIONS
          DO 680 JZ=1+JSVROW,NSVARG(G)+JSVROW
            READ(LOCAT,'(A)',ERR=991)LINE
            LLOC=1
C-----------INTERPRET LINE
            CALL URWORD(LINE,LLOC,INMS,INMF,0,NDUM,RDUM,IOUT,LOCAT)
            CALL URWORD(LINE,LLOC,ISTART,ISTOP,2,SPSTRT,RDUM,IOUT,LOCAT) 
            CALL URWORD(LINE,LLOC,ISTART,ISTOP,2,SPEND,RDUM,IOUT,LOCAT)
            CALL URWORD(LINE,LLOC,ICZS,ICZF,1,NDUM,RDUM,IOUT,LOCAT)
C-----------PROCESS NAME OF STATE VARIABLE; CHECK THAT NAME IS UNIQUE
            JE = 0  ! TELL CHKNAME THAT THIS IS A STORAGE STATE VARIABLE
            CALL CHKNAME(LINE(INMS:INMF),G,JS,JE)  
            IF(JE.EQ.0)THEN                      ! NAME IS UNIQUE
              JS = JS + 1                        ! INCREMENT # UNIQUE SV
              SVNAME(JS)=LINE(INMS:INMF)         ! SAVE THE NAME
              SVSP(JS,1)=SPSTRT                  ! STORE START STRESS PERIODS
              SVSP(JS,2)=SPEND                   ! STORE END STRESS PERIOS
              GRDLOCSTA(JS)=G
              JESV = JS-JSR                      ! SHIFT TO SSV INDEXING
              NSSVGZL(JESV)= 1                   ! INITIALIZE NUMBER OF GRIDS
              SSVGLOC(JESV,NSSVGZL(JESV)) = G    ! STORE GRID NUMBER
              SSVZLOC(JESV,NSSVGZL(JESV)) = JZ   ! STORE ZONE NUMBER
              IF(IPRN.EQ.1)                      ! WRITE INFORMATION         
     &          WRITE(IOUT,6600,ERR=990)
     &          JZ,SVNAME(JS),SVSP(JS,1),SVSP(JS,2)
            ELSEIF(JE.GT.0)THEN                  ! NAME EXISTS ON ANOTHER GRID
C             JE IS THE SEQUENCE NUMBER FOR THE EXISTING STORAGE STATE VARIABLE
              JESV = JE-JSR                      ! SHIFT TO SSV INDEXING
              NSSVGZL(JESV)= NSSVGZL(JESV)+1     ! INCREMENT NUMBER OF GRIDS
              SSVGLOC(JESV,NSSVGZL(JESV)) = G    ! STORE GRID NUMBER
              SSVZLOC(JESV,NSSVGZL(JESV)) = JZ   ! STORE ZONE NUMBER
C             CHECK THAT SPSTRT AND SPEND READ ON THIS GRID ARE VALID
              IF(SVSP(JE,1).NE.SPSTRT.OR.SVSP(JE,2).NE.SPEND)THEN
                CALL GWM1BAS3PS(' PROGRAM STOPPED: SPSTRT/SPEND DO NOT M
     &ATCH FOR STORAGE STATE VARIABLE ON GRID',G)
                CALL USTOP(' ')
              ENDIF     
              IF(IPRN.EQ.1)                      ! WRITE INFORMATION         
     &        WRITE(IOUT,6605,ERR=990)JZ,SVNAME(JE),GRDLOCSTA(JE)
            ENDIF
C
C-----------PROCESS THE ZONE FOR STORAGE VARIABLE 
            IF(LINE(ICZS:ICZF).EQ.'ALL')THEN     ! ALL DOMAIN IN ZONE
              DO 620 KK=1,NLAY
              DO 620 II=1,NROW
              DO 620 JJ=1,NCOL
                SVZONE(JJ,II,KK,JZ)=1
  620         ENDDO 
              IF(IPRN.EQ.1)WRITE(IOUT,6610,ERR=990)
            ELSEIF(LINE(ICZS:ICZF).EQ.'ZONE')THEN ! READ ZONE
              SVZONE(:,:,:,JZ) = 0               ! EMPTY ZONE ARRAY
              READ(LOCAT,*,ERR=991)NSVZL         ! READ NUMBER OF LAYERS
              IF(IPRN.EQ.1.AND.NSVZL.EQ.1)WRITE(IOUT,6620,ERR=990)
              IF(IPRN.EQ.1.AND.NSVZL.GT.1)WRITE(IOUT,6622,ERR=990)NSVZL
              DO 640 K=1,NSVZL
                READ(LOCAT,*,ERR=991)KK          ! READ LAYER NUMBER (LNUM)
                CALL U2DINT(SVZONE(:,:,KK,JZ),
     &          '     STATE VARIABLE ZONE',NROW,NCOL,KK,LOCAT,IOUT)
  640         ENDDO 
            ELSE                                 ! INVALID ENTRY
              CALL GWM1BAS3PS(' PROGRAM STOPPED: INVALID ENTRY CZONE FOR
     & STORAGE STATE VARIABLE ON GRID',G)
              CALL USTOP(' ')
            ENDIF
 680      ENDDO
          JSVROW=JSVROW+NSVARG(G) ! INCREMENT JSVROW FOR SV READ
        ENDIF
 700  ENDDO
      JSVROW = JSR + NSVAR  ! NOW, JSVROW IS NUMBER OF UNIQUE SV
C
C-----CLOSE FILE
      DO I=1,NGRIDS
        CLOSE(NUNOPN(I))
      ENDDO
      WRITE(IOUT,7000,ERR=990)BYTES
      WRITE(IOUT,7100,ERR=990)
C
C-----OUTPUTS TO FILE
 1000 FORMAT(1X,/1X,'OPENING STATE VARIABLE FILE ON UNIT ',I4,':',
     1  /1X,A200)
 2000 FORMAT(1X,/1X,'PROGRAM STOPPED. IPRN MUST BE EQUAL TO 0 OR 1: ',
     1  I4)
 2100 FORMAT(1X,/1X,'OPTIMAL STATE VARIABLE VALUES WILL BE WRITTEN ',
     1  'TO UNIT NUMBER:',I4)
 3000 FORMAT(1X,/1X,'NO. OF HEAD STATE VARIABLES (NHVAR):',
     1  T45,I8,/1X,'NO. OF STREAMFLOW STATE VARIABLES (NRVAR):',
     2  T45,I8,/1X,'NO. OF STORAGE STATE VARIABLES (NSVAR):',
     3  T45,I8)
 3010 FORMAT(1X,'NO. OF STORAGE VARIABLE RECORDS IN INPUT:',T45,I8)
 5000 FORMAT(/,T2,'HEAD TYPE STATE VARIABLES:',/,
     1  T3,'NUMBER',T14,'NAME',T30,'LAY',T35,'ROW',
     2  T40,'COL',/,1X,'----------------------',
     3  '------------------------------------')
 5100 FORMAT(T3,I5,T14,A10,T26,3I5)
 5200 FORMAT('   AVAILABLE IN STRESS PERIOD: ',I5,/)
 6000 FORMAT(/,T2,'STREAMFLOW TYPE STATE VARIABLES:',/,
     1  T3,'NUMBER',T14,'NAME',T30,'SEG',T40,'REACH',/,
     2  1X,'----------------------',
     3  '------------------------------------')
 6100 FORMAT(T3,I5,T14,A10,T26,I5,T40,I5)
 6200 FORMAT('   AVAILABLE IN STRESS PERIOD: ',I5,/)
 6500 FORMAT(/,T2,'STORAGE TYPE STATE VARIABLES:')
 6600 FORMAT(/,' NUMBER:',I5,' NAME: ',A10,' SPSTRT:',I5,' SPEND:',I5)
 6605 FORMAT(/,' NUMBER:',I5,' NAME: ',A10,'MATCHES EXISTING STATE ',
     &       'VARIABLE ON GRID',I5)
 6610 FORMAT(T2,'STORAGE CHANGE CALCULATED FOR ',
     1  'ALL ACTIVE CELLS IN GRID')
 6620 FORMAT(T2,'STORAGE CHANGE CALCULATED FOR ',
     1  'ONE LAYER IN GRID')
 6622 FORMAT(T2,'STORAGE CHANGE CALCULATED FOR',I5,
     1  ' LAYERS IN GRID')
 7000 FORMAT(/,1X,I8,' BYTES OF MEMORY ALLOCATED TO STORE DATA FOR',
     1               ' STATE VARIABLES')
 7100 FORMAT(/,1X,'CLOSING STATE VARIABLE FILE',/)
C
      RETURN
C
C-----ERROR HANDLING
  990 CONTINUE
C-----FILE-WRITING ERROR
      INQUIRE(IOUT,NAME=FLNM,FORM=FMTARG,ACCESS=ACCARG,ACTION=FILACT)
      WRITE(*,9900)TRIM(FLNM),IOUT,FMTARG,ACCARG,FILACT
 9900 FORMAT(/,1X,'*** ERROR WRITING FILE "',A,'" ON UNIT ',I5,/,
     &7X,'SPECIFIED FILE FORMAT: ',A,/
     &7X,'SPECIFIED FILE ACCESS: ',A,/
     &7X,'SPECIFIED FILE ACTION: ',A,/
     &2X,'-- STOP EXECUTION (GWM1STA3AR)')
      CALL USTOP(' ')
C
  991 CONTINUE
C-----FILE-READING ERROR
      INQUIRE(LOCAT,NAME=FLNM,FORM=FMTARG,ACCESS=ACCARG,ACTION=FILACT)
      WRITE(*,9910)TRIM(FLNM),LOCAT,FMTARG,ACCARG,FILACT
      WRITE(IOUT,9910)TRIM(FLNM),LOCAT,FMTARG,ACCARG,FILACT
 9910 FORMAT(/,1X,'*** ERROR READING FILE "',A,'" ON UNIT ',I5,/,
     &7X,'SPECIFIED FILE FORMAT: ',A,/
     &7X,'SPECIFIED FILE ACCESS: ',A,/
     &7X,'SPECIFIED FILE ACTION: ',A,/
     &2X,'-- STOP EXECUTION (GWM1STA3AR)')
      CALL USTOP(' ')
C
  992 CONTINUE
C-----ARRAY-ALLOCATING ERROR
      WRITE(*,9920)
 9920 FORMAT(/,1X,'*** ERROR ALLOCATING ARRAY(S)',
     &2X,'-- STOP EXECUTION (GWM1STA3AR)')
      CALL USTOP(' ')
C
  999 CONTINUE
C-----FILE-OPENING ERROR
      INQUIRE(LOCAT,NAME=FLNM,FORM=FMTARG,ACCESS=ACCARG,ACTION=FILACT)
      WRITE(*,9990)TRIM(FLNM),LOCAT,'OLD',FMTARG,ACCARG,FILACT
      WRITE(IOUT,9990)TRIM(FLNM),LOCAT,'OLD',FMTARG,ACCARG,
     &                 FILACT
 9990 FORMAT(/,1X,'*** ERROR OPENING FILE "',A,'" ON UNIT ',I5,/,
     &7X,'SPECIFIED FILE STATUS: ',A,/
     &7X,'SPECIFIED FILE FORMAT: ',A,/
     &7X,'SPECIFIED FILE ACCESS: ',A,/
     &7X,'SPECIFIED FILE ACTION: ',A,/
     &2X,'-- STOP EXECUTION (GWM1STA3AR)')
      CALL USTOP(' ')
C
	CONTAINS
C
C***********************************************************************
      SUBROUTINE SVREAD(SVNM,NG)
C***********************************************************************
C     ASSEMBLE A TEMPORARY LIST OF STATE VARIABLE NAMES
C       SVNM(NSVAR)- THE READ-ORDER LIST OF SVNAMES FROM ALL GRID FILES
C       NG(NSVAR)  - THE GRID FROM WHICH THE ITH SVNM WAS READ
C
      INTEGER(I4B),INTENT(INOUT)::NG(NSVAR)
      CHARACTER(LEN=10),INTENT(INOUT),DIMENSION(NSVAR)::SVNM
      INTEGER(I4B)::IOTMP
      INTEGER(I4B),ALLOCATABLE::DUMMY(:,:)
C+++++++++++++++++++++++++++++++++++++++++++++++++++++++++++++++++++++++
      IOTMP=IGETUNIT(10,200)                     ! TEMP OUTPUT UNIT  
      OPEN(UNIT=IOTMP,STATUS='SCRATCH')          ! CREATE SCRATCH FILE
      JJ=1
      DO 200 G=1,NGRIDS
        IF(FNAMEN(G).NE.' ')THEN
          CALL SGWF2BAS7PNT(G)                   ! POINT TO GRID DIMENSIONS
          LOCAT=NUNOPN(G)                        ! OBTAIN FILE #
          JSVROW=0                               ! START ROW COUNTER
          DO 120 J=1+JSVROW,NHVARG(G)+JSVROW
            READ(LOCAT,'(A)',ERR=991)LINE        ! READ PAST HEAD SV
 120      ENDDO
          JSVROW=JSVROW+NHVARG(G)
C
          DO 140 J=1+JSVROW,NRVARG(G)+JSVROW
            READ(LOCAT,'(A)',ERR=991)LINE        ! READ PAST STRFLW SV
 140      ENDDO
          JSVROW=JSVROW+NRVARG(G)
C
          DO 180 JZ=1+JSVROW,NSVARG(G)+JSVROW
            READ(LOCAT,'(A)',ERR=991)LINE        ! READ A STORAGE SV
            LLOC=1
            CALL URWORD(LINE,LLOC,INMS,INMF,0,NDUM,RDUM,IOTMP,LOCAT)
           CALL URWORD(LINE,LLOC,ISTART,ISTOP,2,SPSTRT,RDUM,IOTMP,LOCAT)
            CALL URWORD(LINE,LLOC,ISTART,ISTOP,2,SPEND,RDUM,IOTMP,LOCAT)
            CALL URWORD(LINE,LLOC,ICZS,ICZF,1,NDUM,RDUM,IOTMP,LOCAT)
            SVNM(JJ)= LINE(INMS:INMF)            ! SAVE THE NAME
            NG(JJ)  = G                          ! SAVE THE GRID IT IS ON
            JJ=JJ+1
C
C-----------READ PAST THE ZONE INFORMATION; COLLECT LAYER MAX
            IF(LINE(ICZS:ICZF).EQ.'ALL')THEN     ! ALL DOMAIN IN ZONE
            ELSEIF(LINE(ICZS:ICZF).EQ.'ZONE')THEN ! READ ZONE
              READ(LOCAT,*,ERR=991)NSVZL         ! READ NUMBER OF LAYERS
              DO 160 K=1,NSVZL
                READ(LOCAT,*,ERR=991)KK          ! READ LAYER NUMBER
                ALLOCATE (DUMMY(NROW,NCOL))      ! CREATE ARRAY FOR READ
                CALL U2DINT(DUMMY(:,:),
     &        ' DUMMY READ',NROW,NCOL,0,LOCAT,IOTMP)
                DEALLOCATE (DUMMY)               ! ERASE ARRAY
  160         ENDDO 
            ELSE                                 ! INVALID ENTRY
            CALL GWM1BAS3PS(' PROGRAM STOPPED: INVALID ENTRY CZONE FOR
     & STORAGE STATE VARIABLE ON GRID',G)
            CALL USTOP(' ')
            ENDIF
  180     ENDDO          
C
          REWIND(LOCAT)                          ! REWIND THE FILE
          CALL URDCOM(LOCAT,IOTMP,LINE)          ! READ FIRST LINES 
          READ(LOCAT,'(A)',ERR=991)LINE          ! POSITION TO READ
        ENDIF
  200 ENDDO
C
      CLOSE(IOTMP)                               ! CLOSE/ERASE TEMP FILE
      RETURN
C
  991 CONTINUE
C-----FILE-READING ERROR
      INQUIRE(LOCAT,NAME=FLNM,FORM=FMTARG,ACCESS=ACCARG,ACTION=FILACT)
      WRITE(*,9910)TRIM(FLNM),LOCAT,FMTARG,ACCARG,FILACT
      WRITE(IOUT,9910)TRIM(FLNM),LOCAT,FMTARG,ACCARG,FILACT
 9910 FORMAT(/,1X,'*** ERROR READING FILE "',A,'" ON UNIT ',I5,/,
     &7X,'SPECIFIED FILE FORMAT: ',A,/
     &7X,'SPECIFIED FILE ACCESS: ',A,/
     &7X,'SPECIFIED FILE ACTION: ',A,/
     &2X,'-- STOP EXECUTION (GWM1STA3AR)')
      CALL USTOP(' ')
      END SUBROUTINE SVREAD
C
C***********************************************************************
      SUBROUTINE SVSRCH(SVNM,NG,NSVAR,NSVARGU,NGMAX)
C***********************************************************************
C      DETERMINE THE NUMBER OF UNIQUE STATE VARIABLE NAMES ON EACH GRID
C      IF A NAME LISTED IN ONE GRID APPEARED IN A PRIOR GRID LIST 
C      IT IS NOT UNIQUE AND INSTEAD IS COUNTED AS AN ADDITIONAL ENTRY 
C      ON THE FIRST GRID LIST.
C      INPUT:  SVNM(NSVAR)- THE READ-ORDER LIST OF SVNAMES FROM ALL GRID FILES
C              NG(NSVAR)  - THE GRID FROM WHICH THE ITH SVNM WAS READ
C              NSVAR      - THE TOTAL NUMBER OF SVNAMES READ
C
C      OUTPUT: NSVARGU(G) - THE NUMBER OF UNIQUE VARIABLE NAMES ON GRID G
C              NGMAX - THE MAXIMUM NUMBER OF UNIQUE VARIABLE NAMES ON ANY GRID
C
      INTEGER(I4B),INTENT(IN)::NSVAR,NG(NSVAR)
      CHARACTER(LEN=10),INTENT(IN),DIMENSION(NSVAR)::SVNM
      INTEGER(I4B),INTENT(INOUT),DIMENSION(NGRIDS)::NSVARGU
      INTEGER(I4B),INTENT(OUT)::NGMAX
      INTEGER(I4B)::IFLG
C+++++++++++++++++++++++++++++++++++++++++++++++++++++++++++++++++++++++
        NSVARGU = 0         ! ZERO OUT ENTIRE VECTOR
        NSVARGU(NG(1)) = 1  ! INITIALIZE FIRST UNIQUE STATE VARIABLES
        DO 200 I=2,NSVAR
          IFLG = 0
          DO 120 JJ=1,I-1
            IF(SVNM(I).EQ.SVNM(JJ))THEN       ! NAME MATCHES EARLIER NAME
              IF(NG(I).EQ.NG(JJ))THEN         ! THIS IS AN INVALID MATCH
                WRITE(IOUT,4000,ERR=990)SVNM(I),NG(I)
                CALL USTOP(' ')
              ENDIF
              IFLG = 1
              ! INCREMENT COUNTER ON GRID WHERE NAME FIRST APPEARS
              NSVARGU(NG(JJ))=NSVARGU(NG(JJ))+1  
              GO TO 180
            ENDIF  
 120      ENDDO
          IF(IFLG.EQ.0)THEN                      ! SVNM(I) IS NEW
            NSVARGU(NG(I))=NSVARGU(NG(I))+1      ! INCREMENT GRID COUNTER
          ENDIF
 180      CONTINUE
 200    ENDDO 
C
        NGMAX = 0                                ! FIND NGMAX
        DO 300 G=1,NGRIDS
          NGMAX = MAX(NGMAX,NSVARGU(G))       
 300    ENDDO
C
      RETURN   
C      
 4000 FORMAT(1X,/1X,'PROGRAM STOPPED. STATE VARIABLE NAME ',A,
     1  ' ON GRID',I4,' HAS ALREADY BEEN USED.') 
  990 CONTINUE
C-----FILE-WRITING ERROR
      INQUIRE(IOUT,NAME=FLNM,FORM=FMTARG,ACCESS=ACCARG,ACTION=FILACT)
      WRITE(*,9900)TRIM(FLNM),IOUT,FMTARG,ACCARG,FILACT
 9900 FORMAT(/,1X,'*** ERROR WRITING FILE "',A,'" ON UNIT ',I5,/,
     &7X,'SPECIFIED FILE FORMAT: ',A,/
     &7X,'SPECIFIED FILE ACCESS: ',A,/
     &7X,'SPECIFIED FILE ACTION: ',A,/
     &2X,'-- STOP EXECUTION (GWM1STA3AR)')
      CALL USTOP(' ')
C    
      END SUBROUTINE SVSRCH
C      
C***********************************************************************
      SUBROUTINE LOADSV(G)
C***********************************************************************
C     LOAD HEAD-TYPE STATE VARIABLES 
      INTEGER(I4B),INTENT(IN)::G
C+++++++++++++++++++++++++++++++++++++++++++++++++++++++++++++++++++++++
C
      CALL SGWF2BAS7PNT(G)                       ! POINT TO GRID DIMENSIONS
C-----CHECK THAT CELL IS ON GRID      
      IF(IR.LT.1 .OR. IR.GT.NROW)THEN
        WRITE(IOUT,1000,ERR=990)IR
        CALL USTOP(' ')
      ENDIF
      IF(IC.LT.1 .OR. IC.GT.NCOL)THEN
        WRITE(IOUT,2000,ERR=990)IC
        CALL USTOP(' ')
      ENDIF
      IF(IL.LT.1 .OR. IL.GT.NLAY)THEN
        WRITE(IOUT,3000,ERR=990)IL
        CALL USTOP(' ')
      ENDIF
C
C-----LOAD VARIABLES 
      SVILOC(J)=IR                   
      SVJLOC(J)=IC
      SVKLOC(J)=IL
C
      RETURN
 1000 FORMAT(1X,/1X,'PROGRAM STOPPED. ROW NUMBER FOR STATE VARIABLE',
     1  ' IS OUT OF BOUNDS: ',I5)
 2000 FORMAT(1X,/1X,'PROGRAM STOPPED. COLUMN NUMBER FOR STATE VARIABLE',
     1  ' IS OUT OF BOUNDS: ',I5)
 3000 FORMAT(1X,/1X,'PROGRAM STOPPED. LAYER NUMBER FOR STATE VARIABLE',
     1  ' IS OUT OF BOUNDS: ',I5)
C
C-----ERROR HANDLING
  990 CONTINUE
C-----FILE-WRITING ERROR
      INQUIRE(IOUT,NAME=FLNM,FORM=FMTARG,ACCESS=ACCARG,ACTION=FILACT)
      WRITE(*,9900)TRIM(FLNM),IOUT,FMTARG,ACCARG,FILACT
 9900 FORMAT(/,1X,'*** ERROR WRITING FILE "',A,'" ON UNIT ',I5,/,
     &7X,'SPECIFIED FILE FORMAT: ',A,/
     &7X,'SPECIFIED FILE ACCESS: ',A,/
     &7X,'SPECIFIED FILE ACTION: ',A,/
     &2X,'-- STOP EXECUTION (LOADSV)')
      CALL USTOP(' ')
C
      END SUBROUTINE LOADSV
C
C***********************************************************************
      SUBROUTINE CHKNAME(SVNMT,G,J,JE)
C***********************************************************************
C     CHECK THAT STATE VARIABLE NAME HAS NOT BEEN USED
C     EXCEPT FOR STORAGE STATE VARIABLES
      USE GWM1DCV3, ONLY : FVNAME,EVNAME,BVNAME
      USE GWM1DCV3, ONLY : NFVAR,NBVAR,NEVAR
      CHARACTER(LEN=*),INTENT(IN)::SVNMT
      INTEGER(I4B),INTENT(IN)::J,G
      INTEGER(I4B)::JE
C+++++++++++++++++++++++++++++++++++++++++++++++++++++++++++++++++++++++
       DO 100 JJ=1,J-1
         IF(SVNMT.EQ.SVNAME(JJ))THEN
           IF(JE.EQ.0 .AND. GRDLOCSTA(JJ).NE.G)THEN
             ! A STORAGE STATE VARIABLE THAT HAS REDUNDANT NAME ON ANOTHER GRID
             JE = JJ                        ! RETURN THE SV NUMBER
             GOTO 110                       ! THERE ARE NO MORE REDUNDANCIES
           ELSE                             ! AN IMPROPER REDUNDANCY
             WRITE(IOUT,4000,ERR=990)SVNMT
             CALL USTOP(' ')
           ENDIF
         ENDIF
  100  ENDDO
  110  CONTINUE
       DO 200 II=1,NFVAR
         IF(SVNMT.EQ.FVNAME(II))THEN        ! A FLOW VARIABLE NAME
           WRITE(IOUT,4000,ERR=990)SVNMT
           CALL USTOP(' ')
         ENDIF
  200  ENDDO
       DO 300 II=1,NEVAR
         IF(SVNMT.EQ.EVNAME(II))THEN        ! AN EXTERNAL VARIABLE NAME
           WRITE(IOUT,4000,ERR=990)SVNMT
           CALL USTOP(' ')
         ENDIF
  300  ENDDO
       DO 400 II=1,NBVAR                   
         IF(SVNMT.EQ.BVNAME(II))THEN        ! A BINARY VARIABLE NAME
           WRITE(IOUT,4000,ERR=990)SVNMT
           CALL USTOP(' ')
         ENDIF
  400  ENDDO

      RETURN
 4000 FORMAT(1X,/1X,'PROGRAM STOPPED. STATE VARIABLE NAME ',A,
     1  ' HAS ALREADY BEEN USED.') 
C
C-----ERROR HANDLING
  990 CONTINUE
C-----FILE-WRITING ERROR
      INQUIRE(IOUT,NAME=FLNM,FORM=FMTARG,ACCESS=ACCARG,ACTION=FILACT)
      WRITE(*,9900)TRIM(FLNM),IOUT,FMTARG,ACCARG,FILACT